                                   MODFLOW 6
                U.S. GEOLOGICAL SURVEY MODULAR HYDROLOGIC MODEL
                          GROUNDWATER FLOW MODEL (GWF)
                            VERSION 6.4.4 02/13/2024

   MODFLOW 6 compiled Feb 13 2024 15:40:13 with Intel(R) Fortran Intel(R) 64
   Compiler Classic for applications running on Intel(R) 64, Version 2021.7.0
                             Build 20220726_000000

This software has been approved for release by the U.S. Geological 
Survey (USGS). Although the software has been subjected to rigorous 
review, the USGS reserves the right to update the software as needed 
pursuant to further analysis and review. No warranty, expressed or 
implied, is made by the USGS or the U.S. Government as to the 
functionality of the software and related material nor shall the 
fact of release constitute any such warranty. Furthermore, the 
software is released on condition that neither the USGS nor the U.S. 
Government shall be held liable for any damages resulting from its 
authorized or unauthorized use. Also refer to the USGS Water 
Resources Software User Rights Notice for complete use, copyright, 
and distribution information.


As a work of the United States Government, this USGS product is 
in the public domain within the United States. You can copy, 
modify, distribute, and perform the work, even for commercial 
purposes, all without asking permission. Additionally, USGS 
waives copyright and related rights in the work worldwide 
through CC0 1.0 Universal Public Domain Dedication 
(https://creativecommons.org/publicdomain/zero/1.0/).

The following GNU Lesser General Public License (LGPL) libraries
are used in this USGS product:

    SPARSKIT version 2.0
      ilut, luson, and qsplit 
      (https://www-users.cse.umn.edu/~saad/software/SPARSKIT/)

    RCM - Reverse Cuthill McKee Ordering
      (https://people.math.sc.edu/Burkardt/f_src/rcm/rcm.html)

    BLAS - Basic Linear Algebra Subprograms Level 1
      (https://people.math.sc.edu/Burkardt/f_src/blas1_d/blas1_d.html)

    SPARSEKIT - Sparse Matrix Utility Package
      amux, dperm, dvperm, rperm, and cperm
      (https://people.sc.fsu.edu/~jburkardt/f77_src/sparsekit/sparsekit.html)

The following BSD-3 License libraries are used in this USGS product:

    Modern Fortran DAG Library
      Copyright (c) 2018, Jacob Williams
      All rights reserved.
      (https://github.com/jacobwilliams/daglib)

MODFLOW 6 compiler options: /Isrc\libmf6core.a.p /Isrc /I..\src
/Isrc\libmf6_external.a.p /MTd /nologo /warn:general /warn:truncated_source
/stand:f08 /Zi /traceback /O2 /fpe:0 /heap-arrays:0 /traceback /fpp
/Qdiag-disable:7416 /Qdiag-disable:7025 /Qdiag-disable:5268
/Fdsrc\libmf6core.a.p\Utilities_compilerversion.F90.pdb
/module:src\libmf6core.a.p
/Fosrc/libmf6core.a.p/Utilities_compilerversion.F90.obj /c

System command used to initiate simulation:
"F:\新建文件夹\给韩尚麒\衡水模型\地面沉降包离散节点小论文\新版本算例\Case study\算例1\Thickness of 50 m\MODFLOW-CSUB\mf6.exe"

MODFLOW was compiled using uniform precision.

Real Variables
  KIND: 8
  TINY (smallest non-zero value):    2.225074-308
  HUGE (largest value):    1.797693+308
  PRECISION: 15
  SIZE IN BITS: 64

Integer Variables
  KIND: 4
  HUGE (largest value): 2147483647
  SIZE IN BITS: 32

Long Integer Variables
  KIND: 8
  HUGE (largest value): 9223372036854775807
  SIZE IN BITS: 64

Logical Variables
  KIND: 4
  SIZE IN BITS: 32
 
 NAMEFILE OPTIONS:
    FLOWS WILL BE SAVED TO BUDGET FILE SPECIFIED IN OUTPUT CONTROL
 END NAMEFILE OPTIONS:

 DIS -- STRUCTURED GRID DISCRETIZATION PACKAGE, VERSION 2 : 3/27/2014 - INPUT READ FROM MEMPATH: __INPUT__/CASE1-50/DIS                            


 NPF -- NODE PROPERTY FLOW PACKAGE, VERSION 1, 3/30/2015 INPUT READ FROM MEMPATH: __INPUT__/CASE1-50/NPF                            


 IC -- Initial Conditions Package, Version 8, 3/28/2015 input read from mempath: __INPUT__/CASE1-50/IC                             


 Setting Discretization Options
    Model length unit [0=UND, 1=FEET, 2=METERS, 3=CENTIMETERS] set as 2
 End Setting Discretization Options

 Setting Discretization Dimensions
    NLAY = 1
    NROW = 1
    NCOL = 3
 End Setting Discretization Dimensions

 Setting Discretization Griddata
    DELR set from input file
    DELC set from input file
    TOP set from input file
    BOTM set from input file
 End Setting Discretization Griddata

 Setting NPF Options
    Specific discharge will be calculated at cell centers and written to DATA-SPDIS in budget file when requested.
 End Setting NPF Options

 Setting NPF Griddata
    ICELLTYPE set from input file
    K set from input file
    K33 not provided.  Setting K33 = K.
    K22 not provided.  Setting K22 = K.
 End Setting NPF Griddata


 CHD   -- CHD PACKAGE, VERSION 8, 2/22/2014 INPUT READ FROM MEMPATH: __INPUT__/CASE1-50/CHD_0                          

 PROCESSING CHD BASE OPTIONS
 END OF CHD BASE OPTIONS

 PROCESSING CHD BASE DIMENSIONS
    MAXBOUND =       2
 END OF CHD BASE DIMENSIONS
    STRT set from input file

 STO -- STORAGE PACKAGE, VERSION 1, 5/19/2014 INPUT READ FROM UNIT 1005


 # File generated by Flopy version 3.6.0.dev0 on 02/07/2024 at 20:14:53.
 PROCESSING STORAGE OPTIONS
 END OF STORAGE OPTIONS
 PROCESSING GRIDDATA

                 ICONVERT = 0

         SPECIFIC STORAGE =   0.000000    

           SPECIFIC YIELD =   0.000000    
 END PROCESSING GRIDDATA

 CSUB -- COMPACTION PACKAGE, VERSION 1, 12/15/2019 INPUT READ FROM UNIT 1010


 # File generated by Flopy version 3.6.0.dev0 on 02/07/2024 at 20:14:53.
 PROCESSING CSUB OPTIONS
    CSUB BOUNDARIES HAVE NAMES IN LAST COLUMN.
    LISTS OF CSUB CELLS WILL BE PRINTED.
    FLOWS WILL BE SAVED TO BUDGET FILE SPECIFIED IN OUTPUT CONTROL

 OPENED case1-50.csub.obs
 FILE TYPE:OBS   UNIT 1014   STATUS:OLD                 
 FORMAT:FORMATTED              ACCESS:SEQUENTIAL          
 ACTION:READ                

 END OF CSUB OPTIONS


 CSUB PACKAGE SETTINGS
    NUMBER OF DELAY CELLS = 19
    EFFECTIVE-STRESS FORMULATION
    ELASTIC AND INELASTIC SPECIFIC STORAGE COEFFICIENTS WILL BE 
      SPECIFIED
    THICKNESS AND VOID RATIO WILL NOT BE ADJUSTED DURING THE
      SIMULATION
    INTERBED THICKNESS WILL BE SPECIFIED AS A THICKNESS
    PRECONSOLIDATION STRESS WILL BE SPECIFIED RELATIVE TO INITIAL
      STRESS CONDITIONS
    DELAY INTERBED HEADS WILL BE SPECIFIED RELATIVE TO INITIAL 
      GWF HEADS
    SPECIFIC STORAGE VALUES WILL BE CALCULATED USING THE CURRENT
      EFFECTIVE STRESS
    GAMMAW        = 9806.650000000000
    BETA          = .000000000000000
    GAMMAW * BETA = .000000000000000

 PROCESSING CSUB DIMENSIONS
    NINTERBEDS = 1
 END OF CSUB DIMENSIONS

The observation utility is active for "CSUB"
 # File generated by Flopy version 3.6.0.dev0 on 02/07/2024 at 20:14:53.

Processing observation options:

Text output number of digits of precision set to: 10
The PRINT_INPUT option has been specified.


 OBSERVATIONS READ FROM FILE "case1-50.csub.obs"
 ----------------------------------------------------------------------------------------------------------------------------------------------------------------------------------------------------------------------------
 NAME                                     TYPE                                       TIME         LOCATION DATA                              OUTPUT FILENAME                                                                 
 ----------------------------------------------------------------------------------------------------------------------------------------------------------------------------------------------------------------------------
 TCOMP                                    CONTINUOUS  INTERBED-COMPACTION            ALL TIMES    "  ib1"                                    case1-50.csub.obs.csv                                                           
 SK                                       CONTINUOUS  SK                             ALL TIMES    "  ib1"                                    case1-50.csub.obs.csv                                                           
 QTOP                                     CONTINUOUS  DELAY-FLOWTOP                  ALL TIMES    "  1"                                      case1-50.csub.obs.csv                                                           
 QBOT                                     CONTINUOUS  DELAY-FLOWBOT                  ALL TIMES    "  1"                                      case1-50.csub.obs.csv                                                           
 H0001                                    CONTINUOUS  DELAY-HEAD                     ALL TIMES    "  1  1"                                   case1-50.csub.obs.csv                                                           
 H0002                                    CONTINUOUS  DELAY-HEAD                     ALL TIMES    "  1  2"                                   case1-50.csub.obs.csv                                                           
 H0003                                    CONTINUOUS  DELAY-HEAD                     ALL TIMES    "  1  3"                                   case1-50.csub.obs.csv                                                           
 H0004                                    CONTINUOUS  DELAY-HEAD                     ALL TIMES    "  1  4"                                   case1-50.csub.obs.csv                                                           
 H0005                                    CONTINUOUS  DELAY-HEAD                     ALL TIMES    "  1  5"                                   case1-50.csub.obs.csv                                                           
 H0006                                    CONTINUOUS  DELAY-HEAD                     ALL TIMES    "  1  6"                                   case1-50.csub.obs.csv                                                           
 H0007                                    CONTINUOUS  DELAY-HEAD                     ALL TIMES    "  1  7"                                   case1-50.csub.obs.csv                                                           
 H0008                                    CONTINUOUS  DELAY-HEAD                     ALL TIMES    "  1  8"                                   case1-50.csub.obs.csv                                                           
 H0009                                    CONTINUOUS  DELAY-HEAD                     ALL TIMES    "  1  9"                                   case1-50.csub.obs.csv                                                           
 H0010                                    CONTINUOUS  DELAY-HEAD                     ALL TIMES    "  1  10"                                  case1-50.csub.obs.csv                                                           
 H0011                                    CONTINUOUS  DELAY-HEAD                     ALL TIMES    "  1  11"                                  case1-50.csub.obs.csv                                                           
 H0012                                    CONTINUOUS  DELAY-HEAD                     ALL TIMES    "  1  12"                                  case1-50.csub.obs.csv                                                           
 H0013                                    CONTINUOUS  DELAY-HEAD                     ALL TIMES    "  1  13"                                  case1-50.csub.obs.csv                                                           
 H0014                                    CONTINUOUS  DELAY-HEAD                     ALL TIMES    "  1  14"                                  case1-50.csub.obs.csv                                                           
 H0015                                    CONTINUOUS  DELAY-HEAD                     ALL TIMES    "  1  15"                                  case1-50.csub.obs.csv                                                           
 H0016                                    CONTINUOUS  DELAY-HEAD                     ALL TIMES    "  1  16"                                  case1-50.csub.obs.csv                                                           
 H0017                                    CONTINUOUS  DELAY-HEAD                     ALL TIMES    "  1  17"                                  case1-50.csub.obs.csv                                                           
 H0018                                    CONTINUOUS  DELAY-HEAD                     ALL TIMES    "  1  18"                                  case1-50.csub.obs.csv                                                           
 H0019                                    CONTINUOUS  DELAY-HEAD                     ALL TIMES    "  1  19"                                  case1-50.csub.obs.csv                                                           
 EST                                      CONTINUOUS  DELAY-ESTRESS                  ALL TIMES    "  1  1"                                   case1-50.csub.obs.csv                                                           
 ESM                                      CONTINUOUS  DELAY-ESTRESS                  ALL TIMES    "  1  11"                                  case1-50.csub.obs.csv                                                           
 ESB                                      CONTINUOUS  DELAY-ESTRESS                  ALL TIMES    "  1  19"                                  case1-50.csub.obs.csv                                                           
 PST                                      CONTINUOUS  DELAY-PRECONSTRESS             ALL TIMES    "  1 1"                                    case1-50.csub.obs.csv                                                           
 PSM                                      CONTINUOUS  DELAY-PRECONSTRESS             ALL TIMES    "  1 11"                                   case1-50.csub.obs.csv                                                           
 PSB                                      CONTINUOUS  DELAY-PRECONSTRESS             ALL TIMES    "  1 19"                                   case1-50.csub.obs.csv                                                           
 GS                                       CONTINUOUS  GSTRESS-CELL                   ALL TIMES    "  1 1 2"                                  case1-50.csub.obs.csv                                                           
 ES                                       CONTINUOUS  ESTRESS-CELL                   ALL TIMES    "  1 1 2"                                  case1-50.csub.obs.csv                                                           
 ----------------------------------------------------------------------------------------------------------------------------------------------------------------------------------------------------------------------------



 CG_SKE_CR =   0.000000    

 CG_THETA =  0.2000000    

 SGM =   1.700000    

 SGS =   2.000000    

 PROCESSING CSUB PACKAGEDATA
 END OF CSUB PACKAGEDATA

 CSUB PACKAGE INTERBED DATA
 ---------------------------------------------------------------------------------------------------------------------------------------------------------------------------
 INTERBED          CELLID          CDELAY      PCS       THICK       RNB       SSV_CC     SSV_CR     THETA        KV         H0     BOUNDNAME                               
 ---------------------------------------------------------------------------------------------------------------------------------------------------------------------------
 1                (1,1,2)          DELAY    -10.0       50.0       1.00       1.000E-02  1.000E-05  0.450      1.000E-03  10.0      IB1                                     
 ---------------------------------------------------------------------------------------------------------------------------------------------------------------------------



The observation utility is active for "CASE1-50"
 # File generated by Flopy version 3.6.0.dev0 on 02/07/2024 at 20:14:53.

Processing observation options:

Text output number of digits of precision set to: 10
The PRINT_INPUT option has been specified.


 OBSERVATIONS READ FROM FILE "case1-50.obs"
 ----------------------------------------------------------------------------------------------------------------------------------------------------------------------------------------------------------------------------
 NAME                                     TYPE                                       TIME         LOCATION DATA                              OUTPUT FILENAME                                                                 
 ----------------------------------------------------------------------------------------------------------------------------------------------------------------------------------------------------------------------------
 H1_1_2                                   CONTINUOUS  HEAD                           ALL TIMES    "  1 1 2"                                  gwf_obs.csv                                                                     
 ----------------------------------------------------------------------------------------------------------------------------------------------------------------------------------------------------------------------------


    BINARY GRID INFORMATION WILL BE WRITTEN TO:
      UNIT NUMBER: 1017
      FILE NAME: case1-50.dis.grb

 OPENED case1-50.dis.grb
 FILE TYPE:DATA(BINARY)   UNIT 1017   STATUS:REPLACE             
 FORMAT:UNFORMATTED            ACCESS:STREAM              
 ACTION:READWRITE           

      THE LAST TIME STEP WILL BE PRINTED
      THE LAST TIME STEP WILL BE PRINTED
 # File generated by Flopy version 3.6.0.dev0 on 02/07/2024 at 20:14:53.

 PROCESSING OC OPTIONS

 END OF OC OPTIONS

start timestep kper="1" kstp="1" mode="normal"


 BEGIN READING OUTPUT CONTROL FOR STRESS PERIOD 1
      ALL TIME STEPS WILL BE PRINTED

 END READING OUTPUT CONTROL FOR STRESS PERIOD 1


 PROCESSING STORAGE PERIOD DATA
 END PROCESSING STORAGE PERIOD DATA


 STRESS PERIOD 1 IS TRANSIENT


 REUSING CSUBS FROM LAST STRESS PERIOD

 CSUB PACKAGE CALCULATED INITIAL INTERBED STRESSES AT THE CELL BOTTOM
 ---------------------------------------------------------------------------------------------------------------------------
 INTERBED                                                          PRECONSOLIDATION                                         
 NUMBER            CELLID        GEOSTATIC STRESS EFFECTIVE STRESS      STRESS      BOUNDNAME                               
 ---------------------------------------------------------------------------------------------------------------------------
 1                (1,1,2)         2000.00000       1000.00000       990.000000      IB1                                     
 ---------------------------------------------------------------------------------------------------------------------------



 CSUB PACKAGE CALCULATED INITIAL DELAY INTERBED STRESSES
 --------------------------------------------------------------------------------------------------------------------------------------
 INTERBED                                                                     PRECONSOLIDATION                                         
 NUMBER            CELLID        DELAY CELL GEOSTATIC STRESS EFFECTIVE STRESS      STRESS      BOUNDNAME                               
 --------------------------------------------------------------------------------------------------------------------------------------
 1                (1,1,2)        1           1905.26316       942.631579       942.631579      IB1                                     
                                 2           1910.52632       945.263158       945.263158                                              
                                 3           1915.78947       947.894737       947.894737                                              
                                 4           1921.05263       950.526316       950.526316                                              
                                 5           1926.31579       953.157895       953.157895                                              
                                 6           1931.57895       955.789474       955.789474                                              
                                 7           1936.84211       958.421053       958.421053                                              
                                 8           1942.10526       961.052632       961.052632                                              
                                 9           1947.36842       963.684211       963.684211                                              
                                 10          1952.63158       966.315789       966.315789                                              
                                 11          1957.89474       968.947368       968.947368                                              
                                 12          1963.15789       971.578947       971.578947                                              
                                 13          1968.42105       974.210526       974.210526                                              
                                 14          1973.68421       976.842105       976.842105                                              
                                 15          1978.94737       979.473684       979.473684                                              
                                 16          1984.21053       982.105263       982.105263                                              
                                 17          1989.47368       984.736842       984.736842                                              
                                 18          1994.73684       987.368421       987.368421                                              
                                 19          2000.00000       990.000000       990.000000                                              
 --------------------------------------------------------------------------------------------------------------------------------------



 CSUB PACKAGE COMPRESSION INDICES
 ----------------------------------------------------------------------------------------------------------
 INTERBED                                                                                                  
 NUMBER            CELLID               CC               CR        BOUNDNAME                               
 ----------------------------------------------------------------------------------------------------------
 1                (1,1,2)         20.9326053       2.093260534E-02 IB1                                     
 ----------------------------------------------------------------------------------------------------------




  VOLUME BUDGET FOR ENTIRE MODEL AT END OF TIME STEP    1, STRESS PERIOD   1
  ---------------------------------------------------------------------------------------------------

     CUMULATIVE VOLUME      L**3       RATES FOR THIS TIME STEP      L**3/T          PACKAGE NAME    
     ------------------                 ------------------------                     ----------------

           IN:                                      IN:
           ---                                      ---
              STO-SS =           0.0000                STO-SS =           0.0000     STORAGE                          
      CSUB-CGELASTIC =           0.0000        CSUB-CGELASTIC =           0.0000     CSUB                             
        CSUB-ELASTIC =           0.0000          CSUB-ELASTIC =           0.0000     CSUB                             
      CSUB-INELASTIC =       5.7615E-03        CSUB-INELASTIC =       1.5038E-02     CSUB                             
      CSUB-WATERCOMP =           0.0000        CSUB-WATERCOMP =           0.0000     CSUB                             
                 CHD =           0.0000                   CHD =           0.0000     CHD_0                            

            TOTAL IN =       5.7615E-03              TOTAL IN =       1.5038E-02

          OUT:                                     OUT:
          ----                                     ----
              STO-SS =           0.0000                STO-SS =           0.0000     STORAGE                          
      CSUB-CGELASTIC =           0.0000        CSUB-CGELASTIC =           0.0000     CSUB                             
        CSUB-ELASTIC =           0.0000          CSUB-ELASTIC =           0.0000     CSUB                             
      CSUB-INELASTIC =           0.0000        CSUB-INELASTIC =           0.0000     CSUB                             
      CSUB-WATERCOMP =           0.0000        CSUB-WATERCOMP =           0.0000     CSUB                             
                 CHD =       5.7615E-03                   CHD =       1.5038E-02     CHD_0                            

           TOTAL OUT =       5.7615E-03             TOTAL OUT =       1.5038E-02

            IN - OUT =       3.3560E-11              IN - OUT =       8.7593E-11

 PERCENT DISCREPANCY =           0.00     PERCENT DISCREPANCY =           0.00




         TIME SUMMARY AT END OF TIME STEP    1 IN STRESS PERIOD    1
                    SECONDS     MINUTES      HOURS       DAYS        YEARS
                    -----------------------------------------------------------
   TIME STEP LENGTH  33103.      551.72      9.1953     0.38314     1.04897E-03
 STRESS PERIOD TIME  33103.      551.72      9.1953     0.38314     1.04897E-03
         TOTAL TIME  33103.      551.72      9.1953     0.38314     1.04897E-03


end timestep


start timestep kper="1" kstp="2" mode="normal"



  VOLUME BUDGET FOR ENTIRE MODEL AT END OF TIME STEP    2, STRESS PERIOD   1
  ---------------------------------------------------------------------------------------------------

     CUMULATIVE VOLUME      L**3       RATES FOR THIS TIME STEP      L**3/T          PACKAGE NAME    
     ------------------                 ------------------------                     ----------------

           IN:                                      IN:
           ---                                      ---
              STO-SS =           0.0000                STO-SS =           0.0000     STORAGE                          
      CSUB-CGELASTIC =           0.0000        CSUB-CGELASTIC =           0.0000     CSUB                             
        CSUB-ELASTIC =           0.0000          CSUB-ELASTIC =           0.0000     CSUB                             
      CSUB-INELASTIC =       1.1744E-02        CSUB-INELASTIC =       1.4870E-02     CSUB                             
      CSUB-WATERCOMP =           0.0000        CSUB-WATERCOMP =           0.0000     CSUB                             
                 CHD =           0.0000                   CHD =           0.0000     CHD_0                            

            TOTAL IN =       1.1744E-02              TOTAL IN =       1.4870E-02

          OUT:                                     OUT:
          ----                                     ----
              STO-SS =           0.0000                STO-SS =           0.0000     STORAGE                          
      CSUB-CGELASTIC =           0.0000        CSUB-CGELASTIC =           0.0000     CSUB                             
        CSUB-ELASTIC =           0.0000          CSUB-ELASTIC =           0.0000     CSUB                             
      CSUB-INELASTIC =           0.0000        CSUB-INELASTIC =           0.0000     CSUB                             
      CSUB-WATERCOMP =           0.0000        CSUB-WATERCOMP =           0.0000     CSUB                             
                 CHD =       1.1744E-02                   CHD =       1.4870E-02     CHD_0                            

           TOTAL OUT =       1.1744E-02             TOTAL OUT =       1.4870E-02

            IN - OUT =       6.7964E-11              IN - OUT =       8.5519E-11

 PERCENT DISCREPANCY =           0.00     PERCENT DISCREPANCY =           0.00




         TIME SUMMARY AT END OF TIME STEP    2 IN STRESS PERIOD    1
                    SECONDS     MINUTES      HOURS       DAYS        YEARS
                    -----------------------------------------------------------
   TIME STEP LENGTH  34758.      579.30      9.6551     0.40229     1.10142E-03
 STRESS PERIOD TIME  67861.      1131.0      18.850     0.78543     2.15040E-03
         TOTAL TIME  67861.      1131.0      18.850     0.78543     2.15040E-03


end timestep


start timestep kper="1" kstp="3" mode="normal"



  VOLUME BUDGET FOR ENTIRE MODEL AT END OF TIME STEP    3, STRESS PERIOD   1
  ---------------------------------------------------------------------------------------------------

     CUMULATIVE VOLUME      L**3       RATES FOR THIS TIME STEP      L**3/T          PACKAGE NAME    
     ------------------                 ------------------------                     ----------------

           IN:                                      IN:
           ---                                      ---
              STO-SS =           0.0000                STO-SS =           0.0000     STORAGE                          
      CSUB-CGELASTIC =           0.0000        CSUB-CGELASTIC =           0.0000     CSUB                             
        CSUB-ELASTIC =           0.0000          CSUB-ELASTIC =           0.0000     CSUB                             
      CSUB-INELASTIC =       1.7952E-02        CSUB-INELASTIC =       1.4697E-02     CSUB                             
      CSUB-WATERCOMP =           0.0000        CSUB-WATERCOMP =           0.0000     CSUB                             
                 CHD =           0.0000                   CHD =           0.0000     CHD_0                            

            TOTAL IN =       1.7952E-02              TOTAL IN =       1.4697E-02

          OUT:                                     OUT:
          ----                                     ----
              STO-SS =           0.0000                STO-SS =           0.0000     STORAGE                          
      CSUB-CGELASTIC =           0.0000        CSUB-CGELASTIC =           0.0000     CSUB                             
        CSUB-ELASTIC =           0.0000          CSUB-ELASTIC =           0.0000     CSUB                             
      CSUB-INELASTIC =           0.0000        CSUB-INELASTIC =           0.0000     CSUB                             
      CSUB-WATERCOMP =           0.0000        CSUB-WATERCOMP =           0.0000     CSUB                             
                 CHD =       1.7952E-02                   CHD =       1.4697E-02     CHD_0                            

           TOTAL OUT =       1.7952E-02             TOTAL OUT =       1.4697E-02

            IN - OUT =       1.0329E-10              IN - OUT =       8.3627E-11

 PERCENT DISCREPANCY =           0.00     PERCENT DISCREPANCY =           0.00




         TIME SUMMARY AT END OF TIME STEP    3 IN STRESS PERIOD    1
                    SECONDS     MINUTES      HOURS       DAYS        YEARS
                    -----------------------------------------------------------
   TIME STEP LENGTH  36496.      608.27      10.138     0.42241     1.15649E-03
 STRESS PERIOD TIME 1.04358E+05  1739.3      28.988      1.2078     3.30689E-03
         TOTAL TIME 1.04358E+05  1739.3      28.988      1.2078     3.30689E-03


end timestep


start timestep kper="1" kstp="4" mode="normal"



  VOLUME BUDGET FOR ENTIRE MODEL AT END OF TIME STEP    4, STRESS PERIOD   1
  ---------------------------------------------------------------------------------------------------

     CUMULATIVE VOLUME      L**3       RATES FOR THIS TIME STEP      L**3/T          PACKAGE NAME    
     ------------------                 ------------------------                     ----------------

           IN:                                      IN:
           ---                                      ---
              STO-SS =           0.0000                STO-SS =           0.0000     STORAGE                          
      CSUB-CGELASTIC =           0.0000        CSUB-CGELASTIC =           0.0000     CSUB                             
        CSUB-ELASTIC =           0.0000          CSUB-ELASTIC =           0.0000     CSUB                             
      CSUB-INELASTIC =       2.4392E-02        CSUB-INELASTIC =       1.4519E-02     CSUB                             
      CSUB-WATERCOMP =           0.0000        CSUB-WATERCOMP =           0.0000     CSUB                             
                 CHD =           0.0000                   CHD =           0.0000     CHD_0                            

            TOTAL IN =       2.4392E-02              TOTAL IN =       1.4519E-02

          OUT:                                     OUT:
          ----                                     ----
              STO-SS =           0.0000                STO-SS =           0.0000     STORAGE                          
      CSUB-CGELASTIC =           0.0000        CSUB-CGELASTIC =           0.0000     CSUB                             
        CSUB-ELASTIC =           0.0000          CSUB-ELASTIC =           0.0000     CSUB                             
      CSUB-INELASTIC =           0.0000        CSUB-INELASTIC =           0.0000     CSUB                             
      CSUB-WATERCOMP =           0.0000        CSUB-WATERCOMP =           0.0000     CSUB                             
                 CHD =       2.4392E-02                   CHD =       1.4519E-02     CHD_0                            

           TOTAL OUT =       2.4392E-02             TOTAL OUT =       1.4519E-02

            IN - OUT =       1.3961E-10              IN - OUT =       8.1882E-11

 PERCENT DISCREPANCY =           0.00     PERCENT DISCREPANCY =           0.00




         TIME SUMMARY AT END OF TIME STEP    4 IN STRESS PERIOD    1
                    SECONDS     MINUTES      HOURS       DAYS        YEARS
                    -----------------------------------------------------------
   TIME STEP LENGTH  38321.      638.68      10.645     0.44353     1.21432E-03
 STRESS PERIOD TIME 1.42679E+05  2378.0      39.633      1.6514     4.52121E-03
         TOTAL TIME 1.42679E+05  2378.0      39.633      1.6514     4.52121E-03


end timestep


start timestep kper="1" kstp="5" mode="normal"



  VOLUME BUDGET FOR ENTIRE MODEL AT END OF TIME STEP    5, STRESS PERIOD   1
  ---------------------------------------------------------------------------------------------------

     CUMULATIVE VOLUME      L**3       RATES FOR THIS TIME STEP      L**3/T          PACKAGE NAME    
     ------------------                 ------------------------                     ----------------

           IN:                                      IN:
           ---                                      ---
              STO-SS =           0.0000                STO-SS =           0.0000     STORAGE                          
      CSUB-CGELASTIC =           0.0000        CSUB-CGELASTIC =           0.0000     CSUB                             
        CSUB-ELASTIC =           0.0000          CSUB-ELASTIC =           0.0000     CSUB                             
      CSUB-INELASTIC =       3.1068E-02        CSUB-INELASTIC =       1.4336E-02     CSUB                             
      CSUB-WATERCOMP =           0.0000        CSUB-WATERCOMP =           0.0000     CSUB                             
                 CHD =           0.0000                   CHD =           0.0000     CHD_0                            

            TOTAL IN =       3.1068E-02              TOTAL IN =       1.4336E-02

          OUT:                                     OUT:
          ----                                     ----
              STO-SS =           0.0000                STO-SS =           0.0000     STORAGE                          
      CSUB-CGELASTIC =           0.0000        CSUB-CGELASTIC =           0.0000     CSUB                             
        CSUB-ELASTIC =           0.0000          CSUB-ELASTIC =           0.0000     CSUB                             
      CSUB-INELASTIC =           0.0000        CSUB-INELASTIC =           0.0000     CSUB                             
      CSUB-WATERCOMP =           0.0000        CSUB-WATERCOMP =           0.0000     CSUB                             
                 CHD =       3.1068E-02                   CHD =       1.4336E-02     CHD_0                            

           TOTAL OUT =       3.1068E-02             TOTAL OUT =       1.4336E-02

            IN - OUT =       1.7701E-10              IN - OUT =       8.0317E-11

 PERCENT DISCREPANCY =           0.00     PERCENT DISCREPANCY =           0.00




         TIME SUMMARY AT END OF TIME STEP    5 IN STRESS PERIOD    1
                    SECONDS     MINUTES      HOURS       DAYS        YEARS
                    -----------------------------------------------------------
   TIME STEP LENGTH  40237.      670.62      11.177     0.46571     1.27504E-03
 STRESS PERIOD TIME 1.82916E+05  3048.6      50.810      2.1171     5.79625E-03
         TOTAL TIME 1.82916E+05  3048.6      50.810      2.1171     5.79625E-03


end timestep


start timestep kper="1" kstp="6" mode="normal"



  VOLUME BUDGET FOR ENTIRE MODEL AT END OF TIME STEP    6, STRESS PERIOD   1
  ---------------------------------------------------------------------------------------------------

     CUMULATIVE VOLUME      L**3       RATES FOR THIS TIME STEP      L**3/T          PACKAGE NAME    
     ------------------                 ------------------------                     ----------------

           IN:                                      IN:
           ---                                      ---
              STO-SS =           0.0000                STO-SS =           0.0000     STORAGE                          
      CSUB-CGELASTIC =           0.0000        CSUB-CGELASTIC =           0.0000     CSUB                             
        CSUB-ELASTIC =           0.0000          CSUB-ELASTIC =           0.0000     CSUB                             
      CSUB-INELASTIC =       3.7986E-02        CSUB-INELASTIC =       1.4147E-02     CSUB                             
      CSUB-WATERCOMP =           0.0000        CSUB-WATERCOMP =           0.0000     CSUB                             
                 CHD =           0.0000                   CHD =           0.0000     CHD_0                            

            TOTAL IN =       3.7986E-02              TOTAL IN =       1.4147E-02

          OUT:                                     OUT:
          ----                                     ----
              STO-SS =           0.0000                STO-SS =           0.0000     STORAGE                          
      CSUB-CGELASTIC =           0.0000        CSUB-CGELASTIC =           0.0000     CSUB                             
        CSUB-ELASTIC =           0.0000          CSUB-ELASTIC =           0.0000     CSUB                             
      CSUB-INELASTIC =           0.0000        CSUB-INELASTIC =           0.0000     CSUB                             
      CSUB-WATERCOMP =           0.0000        CSUB-WATERCOMP =           0.0000     CSUB                             
                 CHD =       3.7986E-02                   CHD =       1.4147E-02     CHD_0                            

           TOTAL OUT =       3.7986E-02             TOTAL OUT =       1.4147E-02

            IN - OUT =       2.1560E-10              IN - OUT =       7.8925E-11

 PERCENT DISCREPANCY =           0.00     PERCENT DISCREPANCY =           0.00




         TIME SUMMARY AT END OF TIME STEP    6 IN STRESS PERIOD    1
                    SECONDS     MINUTES      HOURS       DAYS        YEARS
                    -----------------------------------------------------------
   TIME STEP LENGTH  42249.      704.15      11.736     0.48899     1.33879E-03
 STRESS PERIOD TIME 2.25165E+05  3752.7      62.546      2.6061     7.13504E-03
         TOTAL TIME 2.25165E+05  3752.7      62.546      2.6061     7.13504E-03


end timestep


start timestep kper="1" kstp="7" mode="normal"



  VOLUME BUDGET FOR ENTIRE MODEL AT END OF TIME STEP    7, STRESS PERIOD   1
  ---------------------------------------------------------------------------------------------------

     CUMULATIVE VOLUME      L**3       RATES FOR THIS TIME STEP      L**3/T          PACKAGE NAME    
     ------------------                 ------------------------                     ----------------

           IN:                                      IN:
           ---                                      ---
              STO-SS =           0.0000                STO-SS =           0.0000     STORAGE                          
      CSUB-CGELASTIC =           0.0000        CSUB-CGELASTIC =           0.0000     CSUB                             
        CSUB-ELASTIC =           0.0000          CSUB-ELASTIC =           0.0000     CSUB                             
      CSUB-INELASTIC =       4.5150E-02        CSUB-INELASTIC =       1.3953E-02     CSUB                             
      CSUB-WATERCOMP =           0.0000        CSUB-WATERCOMP =           0.0000     CSUB                             
                 CHD =           0.0000                   CHD =           0.0000     CHD_0                            

            TOTAL IN =       4.5150E-02              TOTAL IN =       1.3953E-02

          OUT:                                     OUT:
          ----                                     ----
              STO-SS =           0.0000                STO-SS =           0.0000     STORAGE                          
      CSUB-CGELASTIC =           0.0000        CSUB-CGELASTIC =           0.0000     CSUB                             
        CSUB-ELASTIC =           0.0000          CSUB-ELASTIC =           0.0000     CSUB                             
      CSUB-INELASTIC =           0.0000        CSUB-INELASTIC =           0.0000     CSUB                             
      CSUB-WATERCOMP =           0.0000        CSUB-WATERCOMP =           0.0000     CSUB                             
                 CHD =       4.5150E-02                   CHD =       1.3953E-02     CHD_0                            

           TOTAL OUT =       4.5150E-02             TOTAL OUT =       1.3953E-02

            IN - OUT =       2.5549E-10              IN - OUT =       7.7677E-11

 PERCENT DISCREPANCY =           0.00     PERCENT DISCREPANCY =           0.00




         TIME SUMMARY AT END OF TIME STEP    7 IN STRESS PERIOD    1
                    SECONDS     MINUTES      HOURS       DAYS        YEARS
                    -----------------------------------------------------------
   TIME STEP LENGTH  44361.      739.36      12.323     0.51344     1.40573E-03
 STRESS PERIOD TIME 2.69526E+05  4492.1      74.868      3.1195     8.54076E-03
         TOTAL TIME 2.69526E+05  4492.1      74.868      3.1195     8.54076E-03


end timestep


start timestep kper="1" kstp="8" mode="normal"



  VOLUME BUDGET FOR ENTIRE MODEL AT END OF TIME STEP    8, STRESS PERIOD   1
  ---------------------------------------------------------------------------------------------------

     CUMULATIVE VOLUME      L**3       RATES FOR THIS TIME STEP      L**3/T          PACKAGE NAME    
     ------------------                 ------------------------                     ----------------

           IN:                                      IN:
           ---                                      ---
              STO-SS =           0.0000                STO-SS =           0.0000     STORAGE                          
      CSUB-CGELASTIC =           0.0000        CSUB-CGELASTIC =           0.0000     CSUB                             
        CSUB-ELASTIC =           0.0000          CSUB-ELASTIC =           0.0000     CSUB                             
      CSUB-INELASTIC =       5.2564E-02        CSUB-INELASTIC =       1.3753E-02     CSUB                             
      CSUB-WATERCOMP =           0.0000        CSUB-WATERCOMP =           0.0000     CSUB                             
                 CHD =           0.0000                   CHD =           0.0000     CHD_0                            

            TOTAL IN =       5.2564E-02              TOTAL IN =       1.3753E-02

          OUT:                                     OUT:
          ----                                     ----
              STO-SS =           0.0000                STO-SS =           0.0000     STORAGE                          
      CSUB-CGELASTIC =           0.0000        CSUB-CGELASTIC =           0.0000     CSUB                             
        CSUB-ELASTIC =           0.0000          CSUB-ELASTIC =           0.0000     CSUB                             
      CSUB-INELASTIC =           0.0000        CSUB-INELASTIC =           0.0000     CSUB                             
      CSUB-WATERCOMP =           0.0000        CSUB-WATERCOMP =           0.0000     CSUB                             
                 CHD =       5.2564E-02                   CHD =       1.3753E-02     CHD_0                            

           TOTAL OUT =       5.2564E-02             TOTAL OUT =       1.3753E-02

            IN - OUT =       2.9678E-10              IN - OUT =       7.6589E-11

 PERCENT DISCREPANCY =           0.00     PERCENT DISCREPANCY =           0.00




         TIME SUMMARY AT END OF TIME STEP    8 IN STRESS PERIOD    1
                    SECONDS     MINUTES      HOURS       DAYS        YEARS
                    -----------------------------------------------------------
   TIME STEP LENGTH  46579.      776.32      12.939     0.53911     1.47601E-03
 STRESS PERIOD TIME 3.16105E+05  5268.4      87.807      3.6586     1.00168E-02
         TOTAL TIME 3.16105E+05  5268.4      87.807      3.6586     1.00168E-02


end timestep


start timestep kper="1" kstp="9" mode="normal"



  VOLUME BUDGET FOR ENTIRE MODEL AT END OF TIME STEP    9, STRESS PERIOD   1
  ---------------------------------------------------------------------------------------------------

     CUMULATIVE VOLUME      L**3       RATES FOR THIS TIME STEP      L**3/T          PACKAGE NAME    
     ------------------                 ------------------------                     ----------------

           IN:                                      IN:
           ---                                      ---
              STO-SS =           0.0000                STO-SS =           0.0000     STORAGE                          
      CSUB-CGELASTIC =           0.0000        CSUB-CGELASTIC =           0.0000     CSUB                             
        CSUB-ELASTIC =           0.0000          CSUB-ELASTIC =           0.0000     CSUB                             
      CSUB-INELASTIC =       6.0234E-02        CSUB-INELASTIC =       1.3549E-02     CSUB                             
      CSUB-WATERCOMP =           0.0000        CSUB-WATERCOMP =           0.0000     CSUB                             
                 CHD =           0.0000                   CHD =           0.0000     CHD_0                            

            TOTAL IN =       6.0234E-02              TOTAL IN =       1.3549E-02

          OUT:                                     OUT:
          ----                                     ----
              STO-SS =           0.0000                STO-SS =           0.0000     STORAGE                          
      CSUB-CGELASTIC =           0.0000        CSUB-CGELASTIC =           0.0000     CSUB                             
        CSUB-ELASTIC =           0.0000          CSUB-ELASTIC =           0.0000     CSUB                             
      CSUB-INELASTIC =           0.0000        CSUB-INELASTIC =           0.0000     CSUB                             
      CSUB-WATERCOMP =           0.0000        CSUB-WATERCOMP =           0.0000     CSUB                             
                 CHD =       6.0234E-02                   CHD =       1.3549E-02     CHD_0                            

           TOTAL OUT =       6.0234E-02             TOTAL OUT =       1.3549E-02

            IN - OUT =       3.3961E-10              IN - OUT =       7.5662E-11

 PERCENT DISCREPANCY =           0.00     PERCENT DISCREPANCY =           0.00




         TIME SUMMARY AT END OF TIME STEP    9 IN STRESS PERIOD    1
                    SECONDS     MINUTES      HOURS       DAYS        YEARS
                    -----------------------------------------------------------
   TIME STEP LENGTH  48908.      815.14      13.586     0.56607     1.54981E-03
 STRESS PERIOD TIME 3.65014E+05  6083.6      101.39      4.2247     1.15666E-02
         TOTAL TIME 3.65014E+05  6083.6      101.39      4.2247     1.15666E-02


end timestep


start timestep kper="1" kstp="10" mode="normal"



  VOLUME BUDGET FOR ENTIRE MODEL AT END OF TIME STEP   10, STRESS PERIOD   1
  ---------------------------------------------------------------------------------------------------

     CUMULATIVE VOLUME      L**3       RATES FOR THIS TIME STEP      L**3/T          PACKAGE NAME    
     ------------------                 ------------------------                     ----------------

           IN:                                      IN:
           ---                                      ---
              STO-SS =           0.0000                STO-SS =           0.0000     STORAGE                          
      CSUB-CGELASTIC =           0.0000        CSUB-CGELASTIC =           0.0000     CSUB                             
        CSUB-ELASTIC =           0.0000          CSUB-ELASTIC =           0.0000     CSUB                             
      CSUB-INELASTIC =       6.8162E-02        CSUB-INELASTIC =       1.3339E-02     CSUB                             
      CSUB-WATERCOMP =           0.0000        CSUB-WATERCOMP =           0.0000     CSUB                             
                 CHD =           0.0000                   CHD =           0.0000     CHD_0                            

            TOTAL IN =       6.8162E-02              TOTAL IN =       1.3339E-02

          OUT:                                     OUT:
          ----                                     ----
              STO-SS =           0.0000                STO-SS =           0.0000     STORAGE                          
      CSUB-CGELASTIC =           0.0000        CSUB-CGELASTIC =           0.0000     CSUB                             
        CSUB-ELASTIC =           0.0000          CSUB-ELASTIC =           0.0000     CSUB                             
      CSUB-INELASTIC =           0.0000        CSUB-INELASTIC =           0.0000     CSUB                             
      CSUB-WATERCOMP =           0.0000        CSUB-WATERCOMP =           0.0000     CSUB                             
                 CHD =       6.8162E-02                   CHD =       1.3339E-02     CHD_0                            

           TOTAL OUT =       6.8162E-02             TOTAL OUT =       1.3339E-02

            IN - OUT =       3.8411E-10              IN - OUT =       7.4881E-11

 PERCENT DISCREPANCY =           0.00     PERCENT DISCREPANCY =           0.00




         TIME SUMMARY AT END OF TIME STEP   10 IN STRESS PERIOD    1
                    SECONDS     MINUTES      HOURS       DAYS        YEARS
                    -----------------------------------------------------------
   TIME STEP LENGTH  51354.      855.90      14.265     0.59437     1.62730E-03
 STRESS PERIOD TIME 4.16368E+05  6939.5      115.66      4.8191     1.31939E-02
         TOTAL TIME 4.16368E+05  6939.5      115.66      4.8191     1.31939E-02


end timestep


start timestep kper="1" kstp="11" mode="normal"



  VOLUME BUDGET FOR ENTIRE MODEL AT END OF TIME STEP   11, STRESS PERIOD   1
  ---------------------------------------------------------------------------------------------------

     CUMULATIVE VOLUME      L**3       RATES FOR THIS TIME STEP      L**3/T          PACKAGE NAME    
     ------------------                 ------------------------                     ----------------

           IN:                                      IN:
           ---                                      ---
              STO-SS =           0.0000                STO-SS =           0.0000     STORAGE                          
      CSUB-CGELASTIC =           0.0000        CSUB-CGELASTIC =           0.0000     CSUB                             
        CSUB-ELASTIC =           0.0000          CSUB-ELASTIC =           0.0000     CSUB                             
      CSUB-INELASTIC =       7.6353E-02        CSUB-INELASTIC =       1.3124E-02     CSUB                             
      CSUB-WATERCOMP =           0.0000        CSUB-WATERCOMP =           0.0000     CSUB                             
                 CHD =           0.0000                   CHD =           0.0000     CHD_0                            

            TOTAL IN =       7.6353E-02              TOTAL IN =       1.3124E-02

          OUT:                                     OUT:
          ----                                     ----
              STO-SS =           0.0000                STO-SS =           0.0000     STORAGE                          
      CSUB-CGELASTIC =           0.0000        CSUB-CGELASTIC =           0.0000     CSUB                             
        CSUB-ELASTIC =           0.0000          CSUB-ELASTIC =           0.0000     CSUB                             
      CSUB-INELASTIC =           0.0000        CSUB-INELASTIC =           0.0000     CSUB                             
      CSUB-WATERCOMP =           0.0000        CSUB-WATERCOMP =           0.0000     CSUB                             
                 CHD =       7.6353E-02                   CHD =       1.3124E-02     CHD_0                            

           TOTAL OUT =       7.6353E-02             TOTAL OUT =       1.3124E-02

            IN - OUT =       4.3046E-10              IN - OUT =       7.4256E-11

 PERCENT DISCREPANCY =           0.00     PERCENT DISCREPANCY =           0.00




         TIME SUMMARY AT END OF TIME STEP   11 IN STRESS PERIOD    1
                    SECONDS     MINUTES      HOURS       DAYS        YEARS
                    -----------------------------------------------------------
   TIME STEP LENGTH  53922.      898.69      14.978     0.62409     1.70867E-03
 STRESS PERIOD TIME 4.70289E+05  7838.2      130.64      5.4432     1.49026E-02
         TOTAL TIME 4.70289E+05  7838.2      130.64      5.4432     1.49026E-02


end timestep


start timestep kper="1" kstp="12" mode="normal"



  VOLUME BUDGET FOR ENTIRE MODEL AT END OF TIME STEP   12, STRESS PERIOD   1
  ---------------------------------------------------------------------------------------------------

     CUMULATIVE VOLUME      L**3       RATES FOR THIS TIME STEP      L**3/T          PACKAGE NAME    
     ------------------                 ------------------------                     ----------------

           IN:                                      IN:
           ---                                      ---
              STO-SS =           0.0000                STO-SS =           0.0000     STORAGE                          
      CSUB-CGELASTIC =           0.0000        CSUB-CGELASTIC =           0.0000     CSUB                             
        CSUB-ELASTIC =           0.0000          CSUB-ELASTIC =           0.0000     CSUB                             
      CSUB-INELASTIC =       8.4809E-02        CSUB-INELASTIC =       1.2905E-02     CSUB                             
      CSUB-WATERCOMP =           0.0000        CSUB-WATERCOMP =           0.0000     CSUB                             
                 CHD =           0.0000                   CHD =           0.0000     CHD_0                            

            TOTAL IN =       8.4809E-02              TOTAL IN =       1.2905E-02

          OUT:                                     OUT:
          ----                                     ----
              STO-SS =           0.0000                STO-SS =           0.0000     STORAGE                          
      CSUB-CGELASTIC =           0.0000        CSUB-CGELASTIC =           0.0000     CSUB                             
        CSUB-ELASTIC =           0.0000          CSUB-ELASTIC =           0.0000     CSUB                             
      CSUB-INELASTIC =           0.0000        CSUB-INELASTIC =           0.0000     CSUB                             
      CSUB-WATERCOMP =           0.0000        CSUB-WATERCOMP =           0.0000     CSUB                             
                 CHD =       8.4809E-02                   CHD =       1.2905E-02     CHD_0                            

           TOTAL OUT =       8.4809E-02             TOTAL OUT =       1.2905E-02

            IN - OUT =       4.7881E-10              IN - OUT =       7.3789E-11

 PERCENT DISCREPANCY =           0.00     PERCENT DISCREPANCY =           0.00




         TIME SUMMARY AT END OF TIME STEP   12 IN STRESS PERIOD    1
                    SECONDS     MINUTES      HOURS       DAYS        YEARS
                    -----------------------------------------------------------
   TIME STEP LENGTH  56618.      943.63      15.727     0.65530     1.79410E-03
 STRESS PERIOD TIME 5.26907E+05  8781.8      146.36      6.0985     1.66967E-02
         TOTAL TIME 5.26907E+05  8781.8      146.36      6.0985     1.66967E-02


end timestep


start timestep kper="1" kstp="13" mode="normal"



  VOLUME BUDGET FOR ENTIRE MODEL AT END OF TIME STEP   13, STRESS PERIOD   1
  ---------------------------------------------------------------------------------------------------

     CUMULATIVE VOLUME      L**3       RATES FOR THIS TIME STEP      L**3/T          PACKAGE NAME    
     ------------------                 ------------------------                     ----------------

           IN:                                      IN:
           ---                                      ---
              STO-SS =           0.0000                STO-SS =           0.0000     STORAGE                          
      CSUB-CGELASTIC =           0.0000        CSUB-CGELASTIC =           0.0000     CSUB                             
        CSUB-ELASTIC =           0.0000          CSUB-ELASTIC =           0.0000     CSUB                             
      CSUB-INELASTIC =       9.3534E-02        CSUB-INELASTIC =       1.2680E-02     CSUB                             
      CSUB-WATERCOMP =           0.0000        CSUB-WATERCOMP =           0.0000     CSUB                             
                 CHD =           0.0000                   CHD =           0.0000     CHD_0                            

            TOTAL IN =       9.3534E-02              TOTAL IN =       1.2680E-02

          OUT:                                     OUT:
          ----                                     ----
              STO-SS =           0.0000                STO-SS =           0.0000     STORAGE                          
      CSUB-CGELASTIC =           0.0000        CSUB-CGELASTIC =           0.0000     CSUB                             
        CSUB-ELASTIC =           0.0000          CSUB-ELASTIC =           0.0000     CSUB                             
      CSUB-INELASTIC =           0.0000        CSUB-INELASTIC =           0.0000     CSUB                             
      CSUB-WATERCOMP =           0.0000        CSUB-WATERCOMP =           0.0000     CSUB                             
                 CHD =       9.3534E-02                   CHD =       1.2680E-02     CHD_0                            

           TOTAL OUT =       9.3534E-02             TOTAL OUT =       1.2680E-02

            IN - OUT =       5.2937E-10              IN - OUT =       7.3475E-11

 PERCENT DISCREPANCY =           0.00     PERCENT DISCREPANCY =           0.00




         TIME SUMMARY AT END OF TIME STEP   13 IN STRESS PERIOD    1
                    SECONDS     MINUTES      HOURS       DAYS        YEARS
                    -----------------------------------------------------------
   TIME STEP LENGTH  59448.      990.81      16.513     0.68806     1.88381E-03
 STRESS PERIOD TIME 5.86355E+05  9772.6      162.88      6.7865     1.85805E-02
         TOTAL TIME 5.86355E+05  9772.6      162.88      6.7865     1.85805E-02


end timestep


start timestep kper="1" kstp="14" mode="normal"



  VOLUME BUDGET FOR ENTIRE MODEL AT END OF TIME STEP   14, STRESS PERIOD   1
  ---------------------------------------------------------------------------------------------------

     CUMULATIVE VOLUME      L**3       RATES FOR THIS TIME STEP      L**3/T          PACKAGE NAME    
     ------------------                 ------------------------                     ----------------

           IN:                                      IN:
           ---                                      ---
              STO-SS =           0.0000                STO-SS =           0.0000     STORAGE                          
      CSUB-CGELASTIC =           0.0000        CSUB-CGELASTIC =           0.0000     CSUB                             
        CSUB-ELASTIC =           0.0000          CSUB-ELASTIC =           0.0000     CSUB                             
      CSUB-INELASTIC =           0.1025        CSUB-INELASTIC =       1.2452E-02     CSUB                             
      CSUB-WATERCOMP =           0.0000        CSUB-WATERCOMP =           0.0000     CSUB                             
                 CHD =           0.0000                   CHD =           0.0000     CHD_0                            

            TOTAL IN =           0.1025              TOTAL IN =       1.2452E-02

          OUT:                                     OUT:
          ----                                     ----
              STO-SS =           0.0000                STO-SS =           0.0000     STORAGE                          
      CSUB-CGELASTIC =           0.0000        CSUB-CGELASTIC =           0.0000     CSUB                             
        CSUB-ELASTIC =           0.0000          CSUB-ELASTIC =           0.0000     CSUB                             
      CSUB-INELASTIC =           0.0000        CSUB-INELASTIC =           0.0000     CSUB                             
      CSUB-WATERCOMP =           0.0000        CSUB-WATERCOMP =           0.0000     CSUB                             
                 CHD =           0.1025                   CHD =       1.2452E-02     CHD_0                            

           TOTAL OUT =           0.1025             TOTAL OUT =       1.2452E-02

            IN - OUT =       5.8233E-10              IN - OUT =       7.3310E-11

 PERCENT DISCREPANCY =           0.00     PERCENT DISCREPANCY =           0.00




         TIME SUMMARY AT END OF TIME STEP   14 IN STRESS PERIOD    1
                    SECONDS     MINUTES      HOURS       DAYS        YEARS
                    -----------------------------------------------------------
   TIME STEP LENGTH  62421.      1040.3      17.339     0.72246     1.97800E-03
 STRESS PERIOD TIME 6.48776E+05  10813.      180.22      7.5090     2.05585E-02
         TOTAL TIME 6.48776E+05  10813.      180.22      7.5090     2.05585E-02


end timestep


start timestep kper="1" kstp="15" mode="normal"



  VOLUME BUDGET FOR ENTIRE MODEL AT END OF TIME STEP   15, STRESS PERIOD   1
  ---------------------------------------------------------------------------------------------------

     CUMULATIVE VOLUME      L**3       RATES FOR THIS TIME STEP      L**3/T          PACKAGE NAME    
     ------------------                 ------------------------                     ----------------

           IN:                                      IN:
           ---                                      ---
              STO-SS =           0.0000                STO-SS =           0.0000     STORAGE                          
      CSUB-CGELASTIC =           0.0000        CSUB-CGELASTIC =           0.0000     CSUB                             
        CSUB-ELASTIC =           0.0000          CSUB-ELASTIC =           0.0000     CSUB                             
      CSUB-INELASTIC =           0.1118        CSUB-INELASTIC =       1.2219E-02     CSUB                             
      CSUB-WATERCOMP =           0.0000        CSUB-WATERCOMP =           0.0000     CSUB                             
                 CHD =           0.0000                   CHD =           0.0000     CHD_0                            

            TOTAL IN =           0.1118              TOTAL IN =       1.2219E-02

          OUT:                                     OUT:
          ----                                     ----
              STO-SS =           0.0000                STO-SS =           0.0000     STORAGE                          
      CSUB-CGELASTIC =           0.0000        CSUB-CGELASTIC =           0.0000     CSUB                             
        CSUB-ELASTIC =           0.0000          CSUB-ELASTIC =           0.0000     CSUB                             
      CSUB-INELASTIC =           0.0000        CSUB-INELASTIC =           0.0000     CSUB                             
      CSUB-WATERCOMP =           0.0000        CSUB-WATERCOMP =           0.0000     CSUB                             
                 CHD =           0.1118                   CHD =       1.2219E-02     CHD_0                            

           TOTAL OUT =           0.1118             TOTAL OUT =       1.2219E-02

            IN - OUT =       6.3794E-10              IN - OUT =       7.3312E-11

 PERCENT DISCREPANCY =           0.00     PERCENT DISCREPANCY =           0.00




         TIME SUMMARY AT END OF TIME STEP   15 IN STRESS PERIOD    1
                    SECONDS     MINUTES      HOURS       DAYS        YEARS
                    -----------------------------------------------------------
   TIME STEP LENGTH  65542.      1092.4      18.206     0.75859     2.07690E-03
 STRESS PERIOD TIME 7.14318E+05  11905.      198.42      8.2676     2.26354E-02
         TOTAL TIME 7.14318E+05  11905.      198.42      8.2676     2.26354E-02


end timestep


start timestep kper="1" kstp="16" mode="normal"



  VOLUME BUDGET FOR ENTIRE MODEL AT END OF TIME STEP   16, STRESS PERIOD   1
  ---------------------------------------------------------------------------------------------------

     CUMULATIVE VOLUME      L**3       RATES FOR THIS TIME STEP      L**3/T          PACKAGE NAME    
     ------------------                 ------------------------                     ----------------

           IN:                                      IN:
           ---                                      ---
              STO-SS =           0.0000                STO-SS =           0.0000     STORAGE                          
      CSUB-CGELASTIC =           0.0000        CSUB-CGELASTIC =           0.0000     CSUB                             
        CSUB-ELASTIC =           0.0000          CSUB-ELASTIC =           0.0000     CSUB                             
      CSUB-INELASTIC =           0.1213        CSUB-INELASTIC =       1.1982E-02     CSUB                             
      CSUB-WATERCOMP =           0.0000        CSUB-WATERCOMP =           0.0000     CSUB                             
                 CHD =           0.0000                   CHD =           0.0000     CHD_0                            

            TOTAL IN =           0.1213              TOTAL IN =       1.1982E-02

          OUT:                                     OUT:
          ----                                     ----
              STO-SS =           0.0000                STO-SS =           0.0000     STORAGE                          
      CSUB-CGELASTIC =           0.0000        CSUB-CGELASTIC =           0.0000     CSUB                             
        CSUB-ELASTIC =           0.0000          CSUB-ELASTIC =           0.0000     CSUB                             
      CSUB-INELASTIC =           0.0000        CSUB-INELASTIC =           0.0000     CSUB                             
      CSUB-WATERCOMP =           0.0000        CSUB-WATERCOMP =           0.0000     CSUB                             
                 CHD =           0.1213                   CHD =       1.1982E-02     CHD_0                            

           TOTAL OUT =           0.1213             TOTAL OUT =       1.1982E-02

            IN - OUT =       6.9647E-10              IN - OUT =       7.3480E-11

 PERCENT DISCREPANCY =           0.00     PERCENT DISCREPANCY =           0.00




         TIME SUMMARY AT END OF TIME STEP   16 IN STRESS PERIOD    1
                    SECONDS     MINUTES      HOURS       DAYS        YEARS
                    -----------------------------------------------------------
   TIME STEP LENGTH  68819.      1147.0      19.116     0.79652     2.18074E-03
 STRESS PERIOD TIME 7.83137E+05  13052.      217.54      9.0641     2.48161E-02
         TOTAL TIME 7.83137E+05  13052.      217.54      9.0641     2.48161E-02


end timestep


start timestep kper="1" kstp="17" mode="normal"



  VOLUME BUDGET FOR ENTIRE MODEL AT END OF TIME STEP   17, STRESS PERIOD   1
  ---------------------------------------------------------------------------------------------------

     CUMULATIVE VOLUME      L**3       RATES FOR THIS TIME STEP      L**3/T          PACKAGE NAME    
     ------------------                 ------------------------                     ----------------

           IN:                                      IN:
           ---                                      ---
              STO-SS =           0.0000                STO-SS =           0.0000     STORAGE                          
      CSUB-CGELASTIC =           0.0000        CSUB-CGELASTIC =           0.0000     CSUB                             
        CSUB-ELASTIC =           0.0000          CSUB-ELASTIC =           0.0000     CSUB                             
      CSUB-INELASTIC =           0.1312        CSUB-INELASTIC =       1.1741E-02     CSUB                             
      CSUB-WATERCOMP =           0.0000        CSUB-WATERCOMP =           0.0000     CSUB                             
                 CHD =           0.0000                   CHD =           0.0000     CHD_0                            

            TOTAL IN =           0.1312              TOTAL IN =       1.1741E-02

          OUT:                                     OUT:
          ----                                     ----
              STO-SS =           0.0000                STO-SS =           0.0000     STORAGE                          
      CSUB-CGELASTIC =           0.0000        CSUB-CGELASTIC =           0.0000     CSUB                             
        CSUB-ELASTIC =           0.0000          CSUB-ELASTIC =           0.0000     CSUB                             
      CSUB-INELASTIC =           0.0000        CSUB-INELASTIC =           0.0000     CSUB                             
      CSUB-WATERCOMP =           0.0000        CSUB-WATERCOMP =           0.0000     CSUB                             
                 CHD =           0.1312                   CHD =       1.1741E-02     CHD_0                            

           TOTAL OUT =           0.1312             TOTAL OUT =       1.1741E-02

            IN - OUT =       7.5819E-10              IN - OUT =       7.3800E-11

 PERCENT DISCREPANCY =           0.00     PERCENT DISCREPANCY =           0.00




         TIME SUMMARY AT END OF TIME STEP   17 IN STRESS PERIOD    1
                    SECONDS     MINUTES      HOURS       DAYS        YEARS
                    -----------------------------------------------------------
   TIME STEP LENGTH  72260.      1204.3      20.072     0.83634     2.28978E-03
 STRESS PERIOD TIME 8.55397E+05  14257.      237.61      9.9004     2.71059E-02
         TOTAL TIME 8.55397E+05  14257.      237.61      9.9004     2.71059E-02


end timestep


start timestep kper="1" kstp="18" mode="normal"



  VOLUME BUDGET FOR ENTIRE MODEL AT END OF TIME STEP   18, STRESS PERIOD   1
  ---------------------------------------------------------------------------------------------------

     CUMULATIVE VOLUME      L**3       RATES FOR THIS TIME STEP      L**3/T          PACKAGE NAME    
     ------------------                 ------------------------                     ----------------

           IN:                                      IN:
           ---                                      ---
              STO-SS =           0.0000                STO-SS =           0.0000     STORAGE                          
      CSUB-CGELASTIC =           0.0000        CSUB-CGELASTIC =           0.0000     CSUB                             
        CSUB-ELASTIC =           0.0000          CSUB-ELASTIC =           0.0000     CSUB                             
      CSUB-INELASTIC =           0.1413        CSUB-INELASTIC =       1.1497E-02     CSUB                             
      CSUB-WATERCOMP =           0.0000        CSUB-WATERCOMP =           0.0000     CSUB                             
                 CHD =           0.0000                   CHD =           0.0000     CHD_0                            

            TOTAL IN =           0.1413              TOTAL IN =       1.1497E-02

          OUT:                                     OUT:
          ----                                     ----
              STO-SS =           0.0000                STO-SS =           0.0000     STORAGE                          
      CSUB-CGELASTIC =           0.0000        CSUB-CGELASTIC =           0.0000     CSUB                             
        CSUB-ELASTIC =           0.0000          CSUB-ELASTIC =           0.0000     CSUB                             
      CSUB-INELASTIC =           0.0000        CSUB-INELASTIC =           0.0000     CSUB                             
      CSUB-WATERCOMP =           0.0000        CSUB-WATERCOMP =           0.0000     CSUB                             
                 CHD =           0.1413                   CHD =       1.1497E-02     CHD_0                            

           TOTAL OUT =           0.1413             TOTAL OUT =       1.1497E-02

            IN - OUT =       8.2346E-10              IN - OUT =       7.4318E-11

 PERCENT DISCREPANCY =           0.00     PERCENT DISCREPANCY =           0.00




         TIME SUMMARY AT END OF TIME STEP   18 IN STRESS PERIOD    1
                    SECONDS     MINUTES      HOURS       DAYS        YEARS
                    -----------------------------------------------------------
   TIME STEP LENGTH  75873.      1264.5      21.076     0.87816     2.40427E-03
 STRESS PERIOD TIME 9.31270E+05  15521.      258.69      10.779     2.95102E-02
         TOTAL TIME 9.31270E+05  15521.      258.69      10.779     2.95102E-02


end timestep


start timestep kper="1" kstp="19" mode="normal"



  VOLUME BUDGET FOR ENTIRE MODEL AT END OF TIME STEP   19, STRESS PERIOD   1
  ---------------------------------------------------------------------------------------------------

     CUMULATIVE VOLUME      L**3       RATES FOR THIS TIME STEP      L**3/T          PACKAGE NAME    
     ------------------                 ------------------------                     ----------------

           IN:                                      IN:
           ---                                      ---
              STO-SS =           0.0000                STO-SS =           0.0000     STORAGE                          
      CSUB-CGELASTIC =           0.0000        CSUB-CGELASTIC =           0.0000     CSUB                             
        CSUB-ELASTIC =           0.0000          CSUB-ELASTIC =           0.0000     CSUB                             
      CSUB-INELASTIC =           0.1516        CSUB-INELASTIC =       1.1249E-02     CSUB                             
      CSUB-WATERCOMP =           0.0000        CSUB-WATERCOMP =           0.0000     CSUB                             
                 CHD =           0.0000                   CHD =           0.0000     CHD_0                            

            TOTAL IN =           0.1516              TOTAL IN =       1.1249E-02

          OUT:                                     OUT:
          ----                                     ----
              STO-SS =           0.0000                STO-SS =           0.0000     STORAGE                          
      CSUB-CGELASTIC =           0.0000        CSUB-CGELASTIC =           0.0000     CSUB                             
        CSUB-ELASTIC =           0.0000          CSUB-ELASTIC =           0.0000     CSUB                             
      CSUB-INELASTIC =           0.0000        CSUB-INELASTIC =           0.0000     CSUB                             
      CSUB-WATERCOMP =           0.0000        CSUB-WATERCOMP =           0.0000     CSUB                             
                 CHD =           0.1516                   CHD =       1.1249E-02     CHD_0                            

           TOTAL OUT =           0.1516             TOTAL OUT =       1.1249E-02

            IN - OUT =       8.9261E-10              IN - OUT =       7.5003E-11

 PERCENT DISCREPANCY =           0.00     PERCENT DISCREPANCY =           0.00




         TIME SUMMARY AT END OF TIME STEP   19 IN STRESS PERIOD    1
                    SECONDS     MINUTES      HOURS       DAYS        YEARS
                    -----------------------------------------------------------
   TIME STEP LENGTH  79667.      1327.8      22.130     0.92207     2.52448E-03
 STRESS PERIOD TIME 1.01094E+06  16849.      280.82      11.701     3.20346E-02
         TOTAL TIME 1.01094E+06  16849.      280.82      11.701     3.20346E-02


end timestep


start timestep kper="1" kstp="20" mode="normal"



  VOLUME BUDGET FOR ENTIRE MODEL AT END OF TIME STEP   20, STRESS PERIOD   1
  ---------------------------------------------------------------------------------------------------

     CUMULATIVE VOLUME      L**3       RATES FOR THIS TIME STEP      L**3/T          PACKAGE NAME    
     ------------------                 ------------------------                     ----------------

           IN:                                      IN:
           ---                                      ---
              STO-SS =           0.0000                STO-SS =           0.0000     STORAGE                          
      CSUB-CGELASTIC =           0.0000        CSUB-CGELASTIC =           0.0000     CSUB                             
        CSUB-ELASTIC =           0.0000          CSUB-ELASTIC =           0.0000     CSUB                             
      CSUB-INELASTIC =           0.1623        CSUB-INELASTIC =       1.0999E-02     CSUB                             
      CSUB-WATERCOMP =           0.0000        CSUB-WATERCOMP =           0.0000     CSUB                             
                 CHD =           0.0000                   CHD =           0.0000     CHD_0                            

            TOTAL IN =           0.1623              TOTAL IN =       1.0999E-02

          OUT:                                     OUT:
          ----                                     ----
              STO-SS =           0.0000                STO-SS =           0.0000     STORAGE                          
      CSUB-CGELASTIC =           0.0000        CSUB-CGELASTIC =           0.0000     CSUB                             
        CSUB-ELASTIC =           0.0000          CSUB-ELASTIC =           0.0000     CSUB                             
      CSUB-INELASTIC =           0.0000        CSUB-INELASTIC =           0.0000     CSUB                             
      CSUB-WATERCOMP =           0.0000        CSUB-WATERCOMP =           0.0000     CSUB                             
                 CHD =           0.1623                   CHD =       1.0999E-02     CHD_0                            

           TOTAL OUT =           0.1623             TOTAL OUT =       1.0999E-02

            IN - OUT =       9.6609E-10              IN - OUT =       7.5888E-11

 PERCENT DISCREPANCY =           0.00     PERCENT DISCREPANCY =           0.00




         TIME SUMMARY AT END OF TIME STEP   20 IN STRESS PERIOD    1
                    SECONDS     MINUTES      HOURS       DAYS        YEARS
                    -----------------------------------------------------------
   TIME STEP LENGTH  83650.      1394.2      23.236     0.96817     2.65071E-03
 STRESS PERIOD TIME 1.09459E+06  18243.      304.05      12.669     3.46854E-02
         TOTAL TIME 1.09459E+06  18243.      304.05      12.669     3.46854E-02


end timestep


start timestep kper="1" kstp="21" mode="normal"



  VOLUME BUDGET FOR ENTIRE MODEL AT END OF TIME STEP   21, STRESS PERIOD   1
  ---------------------------------------------------------------------------------------------------

     CUMULATIVE VOLUME      L**3       RATES FOR THIS TIME STEP      L**3/T          PACKAGE NAME    
     ------------------                 ------------------------                     ----------------

           IN:                                      IN:
           ---                                      ---
              STO-SS =           0.0000                STO-SS =           0.0000     STORAGE                          
      CSUB-CGELASTIC =           0.0000        CSUB-CGELASTIC =           0.0000     CSUB                             
        CSUB-ELASTIC =           0.0000          CSUB-ELASTIC =           0.0000     CSUB                             
      CSUB-INELASTIC =           0.1732        CSUB-INELASTIC =       1.0747E-02     CSUB                             
      CSUB-WATERCOMP =           0.0000        CSUB-WATERCOMP =           0.0000     CSUB                             
                 CHD =           0.0000                   CHD =           0.0000     CHD_0                            

            TOTAL IN =           0.1732              TOTAL IN =       1.0747E-02

          OUT:                                     OUT:
          ----                                     ----
              STO-SS =           0.0000                STO-SS =           0.0000     STORAGE                          
      CSUB-CGELASTIC =           0.0000        CSUB-CGELASTIC =           0.0000     CSUB                             
        CSUB-ELASTIC =           0.0000          CSUB-ELASTIC =           0.0000     CSUB                             
      CSUB-INELASTIC =           0.0000        CSUB-INELASTIC =           0.0000     CSUB                             
      CSUB-WATERCOMP =           0.0000        CSUB-WATERCOMP =           0.0000     CSUB                             
                 CHD =           0.1732                   CHD =       1.0747E-02     CHD_0                            

           TOTAL OUT =           0.1732             TOTAL OUT =       1.0747E-02

            IN - OUT =       1.0443E-09              IN - OUT =       7.6982E-11

 PERCENT DISCREPANCY =           0.00     PERCENT DISCREPANCY =           0.00




         TIME SUMMARY AT END OF TIME STEP   21 IN STRESS PERIOD    1
                    SECONDS     MINUTES      HOURS       DAYS        YEARS
                    -----------------------------------------------------------
   TIME STEP LENGTH  87832.      1463.9      24.398      1.0166     2.78324E-03
 STRESS PERIOD TIME 1.18242E+06  19707.      328.45      13.685     3.74686E-02
         TOTAL TIME 1.18242E+06  19707.      328.45      13.685     3.74686E-02


end timestep


start timestep kper="1" kstp="22" mode="normal"



  VOLUME BUDGET FOR ENTIRE MODEL AT END OF TIME STEP   22, STRESS PERIOD   1
  ---------------------------------------------------------------------------------------------------

     CUMULATIVE VOLUME      L**3       RATES FOR THIS TIME STEP      L**3/T          PACKAGE NAME    
     ------------------                 ------------------------                     ----------------

           IN:                                      IN:
           ---                                      ---
              STO-SS =           0.0000                STO-SS =           0.0000     STORAGE                          
      CSUB-CGELASTIC =           0.0000        CSUB-CGELASTIC =           0.0000     CSUB                             
        CSUB-ELASTIC =           0.0000          CSUB-ELASTIC =           0.0000     CSUB                             
      CSUB-INELASTIC =           0.1844        CSUB-INELASTIC =       1.0492E-02     CSUB                             
      CSUB-WATERCOMP =           0.0000        CSUB-WATERCOMP =           0.0000     CSUB                             
                 CHD =           0.0000                   CHD =           0.0000     CHD_0                            

            TOTAL IN =           0.1844              TOTAL IN =       1.0492E-02

          OUT:                                     OUT:
          ----                                     ----
              STO-SS =           0.0000                STO-SS =           0.0000     STORAGE                          
      CSUB-CGELASTIC =           0.0000        CSUB-CGELASTIC =           0.0000     CSUB                             
        CSUB-ELASTIC =           0.0000          CSUB-ELASTIC =           0.0000     CSUB                             
      CSUB-INELASTIC =           0.0000        CSUB-INELASTIC =           0.0000     CSUB                             
      CSUB-WATERCOMP =           0.0000        CSUB-WATERCOMP =           0.0000     CSUB                             
                 CHD =           0.1844                   CHD =       1.0492E-02     CHD_0                            

           TOTAL OUT =           0.1844             TOTAL OUT =       1.0492E-02

            IN - OUT =       1.1279E-09              IN - OUT =       7.8281E-11

 PERCENT DISCREPANCY =           0.00     PERCENT DISCREPANCY =           0.00




         TIME SUMMARY AT END OF TIME STEP   22 IN STRESS PERIOD    1
                    SECONDS     MINUTES      HOURS       DAYS        YEARS
                    -----------------------------------------------------------
   TIME STEP LENGTH  92224.      1537.1      25.618      1.0674     2.92240E-03
 STRESS PERIOD TIME 1.27464E+06  21244.      354.07      14.753     4.03910E-02
         TOTAL TIME 1.27464E+06  21244.      354.07      14.753     4.03910E-02


end timestep


start timestep kper="1" kstp="23" mode="normal"



  VOLUME BUDGET FOR ENTIRE MODEL AT END OF TIME STEP   23, STRESS PERIOD   1
  ---------------------------------------------------------------------------------------------------

     CUMULATIVE VOLUME      L**3       RATES FOR THIS TIME STEP      L**3/T          PACKAGE NAME    
     ------------------                 ------------------------                     ----------------

           IN:                                      IN:
           ---                                      ---
              STO-SS =           0.0000                STO-SS =           0.0000     STORAGE                          
      CSUB-CGELASTIC =           0.0000        CSUB-CGELASTIC =           0.0000     CSUB                             
        CSUB-ELASTIC =           0.0000          CSUB-ELASTIC =           0.0000     CSUB                             
      CSUB-INELASTIC =           0.1959        CSUB-INELASTIC =       1.0236E-02     CSUB                             
      CSUB-WATERCOMP =           0.0000        CSUB-WATERCOMP =           0.0000     CSUB                             
                 CHD =           0.0000                   CHD =           0.0000     CHD_0                            

            TOTAL IN =           0.1959              TOTAL IN =       1.0236E-02

          OUT:                                     OUT:
          ----                                     ----
              STO-SS =           0.0000                STO-SS =           0.0000     STORAGE                          
      CSUB-CGELASTIC =           0.0000        CSUB-CGELASTIC =           0.0000     CSUB                             
        CSUB-ELASTIC =           0.0000          CSUB-ELASTIC =           0.0000     CSUB                             
      CSUB-INELASTIC =           0.0000        CSUB-INELASTIC =           0.0000     CSUB                             
      CSUB-WATERCOMP =           0.0000        CSUB-WATERCOMP =           0.0000     CSUB                             
                 CHD =           0.1959                   CHD =       1.0236E-02     CHD_0                            

           TOTAL OUT =           0.1959             TOTAL OUT =       1.0236E-02

            IN - OUT =       1.2174E-09              IN - OUT =       7.9813E-11

 PERCENT DISCREPANCY =           0.00     PERCENT DISCREPANCY =           0.00




         TIME SUMMARY AT END OF TIME STEP   23 IN STRESS PERIOD    1
                    SECONDS     MINUTES      HOURS       DAYS        YEARS
                    -----------------------------------------------------------
   TIME STEP LENGTH  96835.      1613.9      26.899      1.1208     3.06852E-03
 STRESS PERIOD TIME 1.37148E+06  22858.      380.97      15.874     4.34595E-02
         TOTAL TIME 1.37148E+06  22858.      380.97      15.874     4.34595E-02


end timestep


start timestep kper="1" kstp="24" mode="normal"



  VOLUME BUDGET FOR ENTIRE MODEL AT END OF TIME STEP   24, STRESS PERIOD   1
  ---------------------------------------------------------------------------------------------------

     CUMULATIVE VOLUME      L**3       RATES FOR THIS TIME STEP      L**3/T          PACKAGE NAME    
     ------------------                 ------------------------                     ----------------

           IN:                                      IN:
           ---                                      ---
              STO-SS =           0.0000                STO-SS =           0.0000     STORAGE                          
      CSUB-CGELASTIC =           0.0000        CSUB-CGELASTIC =           0.0000     CSUB                             
        CSUB-ELASTIC =           0.0000          CSUB-ELASTIC =           0.0000     CSUB                             
      CSUB-INELASTIC =           0.2076        CSUB-INELASTIC =       9.9790E-03     CSUB                             
      CSUB-WATERCOMP =           0.0000        CSUB-WATERCOMP =           0.0000     CSUB                             
                 CHD =           0.0000                   CHD =           0.0000     CHD_0                            

            TOTAL IN =           0.2076              TOTAL IN =       9.9790E-03

          OUT:                                     OUT:
          ----                                     ----
              STO-SS =           0.0000                STO-SS =           0.0000     STORAGE                          
      CSUB-CGELASTIC =           0.0000        CSUB-CGELASTIC =           0.0000     CSUB                             
        CSUB-ELASTIC =           0.0000          CSUB-ELASTIC =           0.0000     CSUB                             
      CSUB-INELASTIC =           0.0000        CSUB-INELASTIC =           0.0000     CSUB                             
      CSUB-WATERCOMP =           0.0000        CSUB-WATERCOMP =           0.0000     CSUB                             
                 CHD =           0.2076                   CHD =       9.9790E-03     CHD_0                            

           TOTAL OUT =           0.2076             TOTAL OUT =       9.9790E-03

            IN - OUT =       1.3134E-09              IN - OUT =       8.1586E-11

 PERCENT DISCREPANCY =           0.00     PERCENT DISCREPANCY =           0.00




         TIME SUMMARY AT END OF TIME STEP   24 IN STRESS PERIOD    1
                    SECONDS     MINUTES      HOURS       DAYS        YEARS
                    -----------------------------------------------------------
   TIME STEP LENGTH 1.01677E+05  1694.6      28.244      1.1768     3.22195E-03
 STRESS PERIOD TIME 1.47316E+06  24553.      409.21      17.050     4.66815E-02
         TOTAL TIME 1.47316E+06  24553.      409.21      17.050     4.66815E-02


end timestep


start timestep kper="1" kstp="25" mode="normal"



  VOLUME BUDGET FOR ENTIRE MODEL AT END OF TIME STEP   25, STRESS PERIOD   1
  ---------------------------------------------------------------------------------------------------

     CUMULATIVE VOLUME      L**3       RATES FOR THIS TIME STEP      L**3/T          PACKAGE NAME    
     ------------------                 ------------------------                     ----------------

           IN:                                      IN:
           ---                                      ---
              STO-SS =           0.0000                STO-SS =           0.0000     STORAGE                          
      CSUB-CGELASTIC =           0.0000        CSUB-CGELASTIC =           0.0000     CSUB                             
        CSUB-ELASTIC =           0.0000          CSUB-ELASTIC =           0.0000     CSUB                             
      CSUB-INELASTIC =           0.2196        CSUB-INELASTIC =       9.7213E-03     CSUB                             
      CSUB-WATERCOMP =           0.0000        CSUB-WATERCOMP =           0.0000     CSUB                             
                 CHD =           0.0000                   CHD =           0.0000     CHD_0                            

            TOTAL IN =           0.2196              TOTAL IN =       9.7213E-03

          OUT:                                     OUT:
          ----                                     ----
              STO-SS =           0.0000                STO-SS =           0.0000     STORAGE                          
      CSUB-CGELASTIC =           0.0000        CSUB-CGELASTIC =           0.0000     CSUB                             
        CSUB-ELASTIC =           0.0000          CSUB-ELASTIC =           0.0000     CSUB                             
      CSUB-INELASTIC =           0.0000        CSUB-INELASTIC =           0.0000     CSUB                             
      CSUB-WATERCOMP =           0.0000        CSUB-WATERCOMP =           0.0000     CSUB                             
                 CHD =           0.2196                   CHD =       9.7213E-03     CHD_0                            

           TOTAL OUT =           0.2196             TOTAL OUT =       9.7213E-03

            IN - OUT =       1.4167E-09              IN - OUT =       8.3619E-11

 PERCENT DISCREPANCY =           0.00     PERCENT DISCREPANCY =           0.00




         TIME SUMMARY AT END OF TIME STEP   25 IN STRESS PERIOD    1
                    SECONDS     MINUTES      HOURS       DAYS        YEARS
                    -----------------------------------------------------------
   TIME STEP LENGTH 1.06761E+05  1779.3      29.656      1.2357     3.38305E-03
 STRESS PERIOD TIME 1.57992E+06  26332.      438.87      18.286     5.00645E-02
         TOTAL TIME 1.57992E+06  26332.      438.87      18.286     5.00645E-02


end timestep


start timestep kper="1" kstp="26" mode="normal"



  VOLUME BUDGET FOR ENTIRE MODEL AT END OF TIME STEP   26, STRESS PERIOD   1
  ---------------------------------------------------------------------------------------------------

     CUMULATIVE VOLUME      L**3       RATES FOR THIS TIME STEP      L**3/T          PACKAGE NAME    
     ------------------                 ------------------------                     ----------------

           IN:                                      IN:
           ---                                      ---
              STO-SS =           0.0000                STO-SS =           0.0000     STORAGE                          
      CSUB-CGELASTIC =           0.0000        CSUB-CGELASTIC =           0.0000     CSUB                             
        CSUB-ELASTIC =           0.0000          CSUB-ELASTIC =           0.0000     CSUB                             
      CSUB-INELASTIC =           0.2319        CSUB-INELASTIC =       9.4635E-03     CSUB                             
      CSUB-WATERCOMP =           0.0000        CSUB-WATERCOMP =           0.0000     CSUB                             
                 CHD =           0.0000                   CHD =           0.0000     CHD_0                            

            TOTAL IN =           0.2319              TOTAL IN =       9.4635E-03

          OUT:                                     OUT:
          ----                                     ----
              STO-SS =           0.0000                STO-SS =           0.0000     STORAGE                          
      CSUB-CGELASTIC =           0.0000        CSUB-CGELASTIC =           0.0000     CSUB                             
        CSUB-ELASTIC =           0.0000          CSUB-ELASTIC =           0.0000     CSUB                             
      CSUB-INELASTIC =           0.0000        CSUB-INELASTIC =           0.0000     CSUB                             
      CSUB-WATERCOMP =           0.0000        CSUB-WATERCOMP =           0.0000     CSUB                             
                 CHD =           0.2319                   CHD =       9.4635E-03     CHD_0                            

           TOTAL OUT =           0.2319             TOTAL OUT =       9.4635E-03

            IN - OUT =       1.5282E-09              IN - OUT =       8.5929E-11

 PERCENT DISCREPANCY =           0.00     PERCENT DISCREPANCY =           0.00




         TIME SUMMARY AT END OF TIME STEP   26 IN STRESS PERIOD    1
                    SECONDS     MINUTES      HOURS       DAYS        YEARS
                    -----------------------------------------------------------
   TIME STEP LENGTH 1.12099E+05  1868.3      31.139      1.2974     3.55220E-03
 STRESS PERIOD TIME 1.69202E+06  28200.      470.00      19.584     5.36167E-02
         TOTAL TIME 1.69202E+06  28200.      470.00      19.584     5.36167E-02


end timestep


start timestep kper="1" kstp="27" mode="normal"



  VOLUME BUDGET FOR ENTIRE MODEL AT END OF TIME STEP   27, STRESS PERIOD   1
  ---------------------------------------------------------------------------------------------------

     CUMULATIVE VOLUME      L**3       RATES FOR THIS TIME STEP      L**3/T          PACKAGE NAME    
     ------------------                 ------------------------                     ----------------

           IN:                                      IN:
           ---                                      ---
              STO-SS =           0.0000                STO-SS =           0.0000     STORAGE                          
      CSUB-CGELASTIC =           0.0000        CSUB-CGELASTIC =           0.0000     CSUB                             
        CSUB-ELASTIC =           0.0000          CSUB-ELASTIC =           0.0000     CSUB                             
      CSUB-INELASTIC =           0.2445        CSUB-INELASTIC =       9.2060E-03     CSUB                             
      CSUB-WATERCOMP =           0.0000        CSUB-WATERCOMP =           0.0000     CSUB                             
                 CHD =           0.0000                   CHD =           0.0000     CHD_0                            

            TOTAL IN =           0.2445              TOTAL IN =       9.2060E-03

          OUT:                                     OUT:
          ----                                     ----
              STO-SS =           0.0000                STO-SS =           0.0000     STORAGE                          
      CSUB-CGELASTIC =           0.0000        CSUB-CGELASTIC =           0.0000     CSUB                             
        CSUB-ELASTIC =           0.0000          CSUB-ELASTIC =           0.0000     CSUB                             
      CSUB-INELASTIC =           0.0000        CSUB-INELASTIC =           0.0000     CSUB                             
      CSUB-WATERCOMP =           0.0000        CSUB-WATERCOMP =           0.0000     CSUB                             
                 CHD =           0.2445                   CHD =       9.2060E-03     CHD_0                            

           TOTAL OUT =           0.2445             TOTAL OUT =       9.2060E-03

            IN - OUT =       1.6488E-09              IN - OUT =       8.8549E-11

 PERCENT DISCREPANCY =           0.00     PERCENT DISCREPANCY =           0.00




         TIME SUMMARY AT END OF TIME STEP   27 IN STRESS PERIOD    1
                    SECONDS     MINUTES      HOURS       DAYS        YEARS
                    -----------------------------------------------------------
   TIME STEP LENGTH 1.17704E+05  1961.7      32.696      1.3623     3.72981E-03
 STRESS PERIOD TIME 1.80972E+06  30162.      502.70      20.946     5.73465E-02
         TOTAL TIME 1.80972E+06  30162.      502.70      20.946     5.73465E-02


end timestep


start timestep kper="1" kstp="28" mode="normal"



  VOLUME BUDGET FOR ENTIRE MODEL AT END OF TIME STEP   28, STRESS PERIOD   1
  ---------------------------------------------------------------------------------------------------

     CUMULATIVE VOLUME      L**3       RATES FOR THIS TIME STEP      L**3/T          PACKAGE NAME    
     ------------------                 ------------------------                     ----------------

           IN:                                      IN:
           ---                                      ---
              STO-SS =           0.0000                STO-SS =           0.0000     STORAGE                          
      CSUB-CGELASTIC =           0.0000        CSUB-CGELASTIC =           0.0000     CSUB                             
        CSUB-ELASTIC =           0.0000          CSUB-ELASTIC =           0.0000     CSUB                             
      CSUB-INELASTIC =           0.2573        CSUB-INELASTIC =       8.9495E-03     CSUB                             
      CSUB-WATERCOMP =           0.0000        CSUB-WATERCOMP =           0.0000     CSUB                             
                 CHD =           0.0000                   CHD =           0.0000     CHD_0                            

            TOTAL IN =           0.2573              TOTAL IN =       8.9495E-03

          OUT:                                     OUT:
          ----                                     ----
              STO-SS =           0.0000                STO-SS =           0.0000     STORAGE                          
      CSUB-CGELASTIC =           0.0000        CSUB-CGELASTIC =           0.0000     CSUB                             
        CSUB-ELASTIC =           0.0000          CSUB-ELASTIC =           0.0000     CSUB                             
      CSUB-INELASTIC =           0.0000        CSUB-INELASTIC =           0.0000     CSUB                             
      CSUB-WATERCOMP =           0.0000        CSUB-WATERCOMP =           0.0000     CSUB                             
                 CHD =           0.2573                   CHD =       8.9495E-03     CHD_0                            

           TOTAL OUT =           0.2573             TOTAL OUT =       8.9495E-03

            IN - OUT =       1.7797E-09              IN - OUT =       9.1487E-11

 PERCENT DISCREPANCY =           0.00     PERCENT DISCREPANCY =           0.00




         TIME SUMMARY AT END OF TIME STEP   28 IN STRESS PERIOD    1
                    SECONDS     MINUTES      HOURS       DAYS        YEARS
                    -----------------------------------------------------------
   TIME STEP LENGTH 1.23589E+05  2059.8      34.330      1.4304     3.91630E-03
 STRESS PERIOD TIME 1.93331E+06  32222.      537.03      22.376     6.12628E-02
         TOTAL TIME 1.93331E+06  32222.      537.03      22.376     6.12628E-02


end timestep


start timestep kper="1" kstp="29" mode="normal"



  VOLUME BUDGET FOR ENTIRE MODEL AT END OF TIME STEP   29, STRESS PERIOD   1
  ---------------------------------------------------------------------------------------------------

     CUMULATIVE VOLUME      L**3       RATES FOR THIS TIME STEP      L**3/T          PACKAGE NAME    
     ------------------                 ------------------------                     ----------------

           IN:                                      IN:
           ---                                      ---
              STO-SS =           0.0000                STO-SS =           0.0000     STORAGE                          
      CSUB-CGELASTIC =           0.0000        CSUB-CGELASTIC =           0.0000     CSUB                             
        CSUB-ELASTIC =           0.0000          CSUB-ELASTIC =           0.0000     CSUB                             
      CSUB-INELASTIC =           0.2703        CSUB-INELASTIC =       8.6944E-03     CSUB                             
      CSUB-WATERCOMP =           0.0000        CSUB-WATERCOMP =           0.0000     CSUB                             
                 CHD =           0.0000                   CHD =           0.0000     CHD_0                            

            TOTAL IN =           0.2703              TOTAL IN =       8.6944E-03

          OUT:                                     OUT:
          ----                                     ----
              STO-SS =           0.0000                STO-SS =           0.0000     STORAGE                          
      CSUB-CGELASTIC =           0.0000        CSUB-CGELASTIC =           0.0000     CSUB                             
        CSUB-ELASTIC =           0.0000          CSUB-ELASTIC =           0.0000     CSUB                             
      CSUB-INELASTIC =           0.0000        CSUB-INELASTIC =           0.0000     CSUB                             
      CSUB-WATERCOMP =           0.0000        CSUB-WATERCOMP =           0.0000     CSUB                             
                 CHD =           0.2703                   CHD =       8.6944E-03     CHD_0                            

           TOTAL OUT =           0.2703             TOTAL OUT =       8.6944E-03

            IN - OUT =       1.9220E-09              IN - OUT =       9.4785E-11

 PERCENT DISCREPANCY =           0.00     PERCENT DISCREPANCY =           0.00




         TIME SUMMARY AT END OF TIME STEP   29 IN STRESS PERIOD    1
                    SECONDS     MINUTES      HOURS       DAYS        YEARS
                    -----------------------------------------------------------
   TIME STEP LENGTH 1.29769E+05  2162.8      36.047      1.5020     4.11212E-03
 STRESS PERIOD TIME 2.06308E+06  34385.      573.08      23.878     6.53750E-02
         TOTAL TIME 2.06308E+06  34385.      573.08      23.878     6.53750E-02


end timestep


start timestep kper="1" kstp="30" mode="normal"



  VOLUME BUDGET FOR ENTIRE MODEL AT END OF TIME STEP   30, STRESS PERIOD   1
  ---------------------------------------------------------------------------------------------------

     CUMULATIVE VOLUME      L**3       RATES FOR THIS TIME STEP      L**3/T          PACKAGE NAME    
     ------------------                 ------------------------                     ----------------

           IN:                                      IN:
           ---                                      ---
              STO-SS =           0.0000                STO-SS =           0.0000     STORAGE                          
      CSUB-CGELASTIC =           0.0000        CSUB-CGELASTIC =           0.0000     CSUB                             
        CSUB-ELASTIC =           0.0000          CSUB-ELASTIC =           0.0000     CSUB                             
      CSUB-INELASTIC =           0.2836        CSUB-INELASTIC =       8.4412E-03     CSUB                             
      CSUB-WATERCOMP =           0.0000        CSUB-WATERCOMP =           0.0000     CSUB                             
                 CHD =           0.0000                   CHD =           0.0000     CHD_0                            

            TOTAL IN =           0.2836              TOTAL IN =       8.4412E-03

          OUT:                                     OUT:
          ----                                     ----
              STO-SS =           0.0000                STO-SS =           0.0000     STORAGE                          
      CSUB-CGELASTIC =           0.0000        CSUB-CGELASTIC =           0.0000     CSUB                             
        CSUB-ELASTIC =           0.0000          CSUB-ELASTIC =           0.0000     CSUB                             
      CSUB-INELASTIC =           0.0000        CSUB-INELASTIC =           0.0000     CSUB                             
      CSUB-WATERCOMP =           0.0000        CSUB-WATERCOMP =           0.0000     CSUB                             
                 CHD =           0.2836                   CHD =       8.4412E-03     CHD_0                            

           TOTAL OUT =           0.2836             TOTAL OUT =       8.4412E-03

            IN - OUT =       2.0773E-09              IN - OUT =       9.8459E-11

 PERCENT DISCREPANCY =           0.00     PERCENT DISCREPANCY =           0.00




         TIME SUMMARY AT END OF TIME STEP   30 IN STRESS PERIOD    1
                    SECONDS     MINUTES      HOURS       DAYS        YEARS
                    -----------------------------------------------------------
   TIME STEP LENGTH 1.36257E+05  2270.9      37.849      1.5770     4.31772E-03
 STRESS PERIOD TIME 2.19933E+06  36656.      610.93      25.455     6.96927E-02
         TOTAL TIME 2.19933E+06  36656.      610.93      25.455     6.96927E-02


end timestep


start timestep kper="1" kstp="31" mode="normal"



  VOLUME BUDGET FOR ENTIRE MODEL AT END OF TIME STEP   31, STRESS PERIOD   1
  ---------------------------------------------------------------------------------------------------

     CUMULATIVE VOLUME      L**3       RATES FOR THIS TIME STEP      L**3/T          PACKAGE NAME    
     ------------------                 ------------------------                     ----------------

           IN:                                      IN:
           ---                                      ---
              STO-SS =           0.0000                STO-SS =           0.0000     STORAGE                          
      CSUB-CGELASTIC =           0.0000        CSUB-CGELASTIC =           0.0000     CSUB                             
        CSUB-ELASTIC =           0.0000          CSUB-ELASTIC =           0.0000     CSUB                             
      CSUB-INELASTIC =           0.2972        CSUB-INELASTIC =       8.1905E-03     CSUB                             
      CSUB-WATERCOMP =           0.0000        CSUB-WATERCOMP =           0.0000     CSUB                             
                 CHD =           0.0000                   CHD =           0.0000     CHD_0                            

            TOTAL IN =           0.2972              TOTAL IN =       8.1905E-03

          OUT:                                     OUT:
          ----                                     ----
              STO-SS =           0.0000                STO-SS =           0.0000     STORAGE                          
      CSUB-CGELASTIC =           0.0000        CSUB-CGELASTIC =           0.0000     CSUB                             
        CSUB-ELASTIC =           0.0000          CSUB-ELASTIC =           0.0000     CSUB                             
      CSUB-INELASTIC =           0.0000        CSUB-INELASTIC =           0.0000     CSUB                             
      CSUB-WATERCOMP =           0.0000        CSUB-WATERCOMP =           0.0000     CSUB                             
                 CHD =           0.2972                   CHD =       8.1905E-03     CHD_0                            

           TOTAL OUT =           0.2972             TOTAL OUT =       8.1905E-03

            IN - OUT =       2.2471E-09              IN - OUT =       1.0255E-10

 PERCENT DISCREPANCY =           0.00     PERCENT DISCREPANCY =           0.00




         TIME SUMMARY AT END OF TIME STEP   31 IN STRESS PERIOD    1
                    SECONDS     MINUTES      HOURS       DAYS        YEARS
                    -----------------------------------------------------------
   TIME STEP LENGTH 1.43070E+05  2384.5      39.742      1.6559     4.53361E-03
 STRESS PERIOD TIME 2.34240E+06  39040.      650.67      27.111     7.42263E-02
         TOTAL TIME 2.34240E+06  39040.      650.67      27.111     7.42263E-02


end timestep


start timestep kper="1" kstp="32" mode="normal"



  VOLUME BUDGET FOR ENTIRE MODEL AT END OF TIME STEP   32, STRESS PERIOD   1
  ---------------------------------------------------------------------------------------------------

     CUMULATIVE VOLUME      L**3       RATES FOR THIS TIME STEP      L**3/T          PACKAGE NAME    
     ------------------                 ------------------------                     ----------------

           IN:                                      IN:
           ---                                      ---
              STO-SS =           0.0000                STO-SS =           0.0000     STORAGE                          
      CSUB-CGELASTIC =           0.0000        CSUB-CGELASTIC =           0.0000     CSUB                             
        CSUB-ELASTIC =           0.0000          CSUB-ELASTIC =           0.0000     CSUB                             
      CSUB-INELASTIC =           0.3110        CSUB-INELASTIC =       7.9427E-03     CSUB                             
      CSUB-WATERCOMP =           0.0000        CSUB-WATERCOMP =           0.0000     CSUB                             
                 CHD =           0.0000                   CHD =           0.0000     CHD_0                            

            TOTAL IN =           0.3110              TOTAL IN =       7.9427E-03

          OUT:                                     OUT:
          ----                                     ----
              STO-SS =           0.0000                STO-SS =           0.0000     STORAGE                          
      CSUB-CGELASTIC =           0.0000        CSUB-CGELASTIC =           0.0000     CSUB                             
        CSUB-ELASTIC =           0.0000          CSUB-ELASTIC =           0.0000     CSUB                             
      CSUB-INELASTIC =           0.0000        CSUB-INELASTIC =           0.0000     CSUB                             
      CSUB-WATERCOMP =           0.0000        CSUB-WATERCOMP =           0.0000     CSUB                             
                 CHD =           0.3110                   CHD =       7.9427E-03     CHD_0                            

           TOTAL OUT =           0.3110             TOTAL OUT =       7.9427E-03

            IN - OUT =       2.4333E-09              IN - OUT =       1.0708E-10

 PERCENT DISCREPANCY =           0.00     PERCENT DISCREPANCY =           0.00




         TIME SUMMARY AT END OF TIME STEP   32 IN STRESS PERIOD    1
                    SECONDS     MINUTES      HOURS       DAYS        YEARS
                    -----------------------------------------------------------
   TIME STEP LENGTH 1.50223E+05  2503.7      41.729      1.7387     4.76029E-03
 STRESS PERIOD TIME 2.49263E+06  41544.      692.40      28.850     7.89866E-02
         TOTAL TIME 2.49263E+06  41544.      692.40      28.850     7.89866E-02


end timestep


start timestep kper="1" kstp="33" mode="normal"



  VOLUME BUDGET FOR ENTIRE MODEL AT END OF TIME STEP   33, STRESS PERIOD   1
  ---------------------------------------------------------------------------------------------------

     CUMULATIVE VOLUME      L**3       RATES FOR THIS TIME STEP      L**3/T          PACKAGE NAME    
     ------------------                 ------------------------                     ----------------

           IN:                                      IN:
           ---                                      ---
              STO-SS =           0.0000                STO-SS =           0.0000     STORAGE                          
      CSUB-CGELASTIC =           0.0000        CSUB-CGELASTIC =           0.0000     CSUB                             
        CSUB-ELASTIC =           0.0000          CSUB-ELASTIC =           0.0000     CSUB                             
      CSUB-INELASTIC =           0.3250        CSUB-INELASTIC =       7.6984E-03     CSUB                             
      CSUB-WATERCOMP =           0.0000        CSUB-WATERCOMP =           0.0000     CSUB                             
                 CHD =           0.0000                   CHD =           0.0000     CHD_0                            

            TOTAL IN =           0.3250              TOTAL IN =       7.6984E-03

          OUT:                                     OUT:
          ----                                     ----
              STO-SS =           0.0000                STO-SS =           0.0000     STORAGE                          
      CSUB-CGELASTIC =           0.0000        CSUB-CGELASTIC =           0.0000     CSUB                             
        CSUB-ELASTIC =           0.0000          CSUB-ELASTIC =           0.0000     CSUB                             
      CSUB-INELASTIC =           0.0000        CSUB-INELASTIC =           0.0000     CSUB                             
      CSUB-WATERCOMP =           0.0000        CSUB-WATERCOMP =           0.0000     CSUB                             
                 CHD =           0.3250                   CHD =       7.6984E-03     CHD_0                            

           TOTAL OUT =           0.3250             TOTAL OUT =       7.6984E-03

            IN - OUT =       2.6380E-09              IN - OUT =       1.1211E-10

 PERCENT DISCREPANCY =           0.00     PERCENT DISCREPANCY =           0.00




         TIME SUMMARY AT END OF TIME STEP   33 IN STRESS PERIOD    1
                    SECONDS     MINUTES      HOURS       DAYS        YEARS
                    -----------------------------------------------------------
   TIME STEP LENGTH 1.57734E+05  2628.9      43.815      1.8256     4.99830E-03
 STRESS PERIOD TIME 2.65036E+06  44173.      736.21      30.675     8.39849E-02
         TOTAL TIME 2.65036E+06  44173.      736.21      30.675     8.39849E-02


end timestep


start timestep kper="1" kstp="34" mode="normal"



  VOLUME BUDGET FOR ENTIRE MODEL AT END OF TIME STEP   34, STRESS PERIOD   1
  ---------------------------------------------------------------------------------------------------

     CUMULATIVE VOLUME      L**3       RATES FOR THIS TIME STEP      L**3/T          PACKAGE NAME    
     ------------------                 ------------------------                     ----------------

           IN:                                      IN:
           ---                                      ---
              STO-SS =           0.0000                STO-SS =           0.0000     STORAGE                          
      CSUB-CGELASTIC =           0.0000        CSUB-CGELASTIC =           0.0000     CSUB                             
        CSUB-ELASTIC =           0.0000          CSUB-ELASTIC =           0.0000     CSUB                             
      CSUB-INELASTIC =           0.3393        CSUB-INELASTIC =       7.4580E-03     CSUB                             
      CSUB-WATERCOMP =           0.0000        CSUB-WATERCOMP =           0.0000     CSUB                             
                 CHD =           0.0000                   CHD =           0.0000     CHD_0                            

            TOTAL IN =           0.3393              TOTAL IN =       7.4580E-03

          OUT:                                     OUT:
          ----                                     ----
              STO-SS =           0.0000                STO-SS =           0.0000     STORAGE                          
      CSUB-CGELASTIC =           0.0000        CSUB-CGELASTIC =           0.0000     CSUB                             
        CSUB-ELASTIC =           0.0000          CSUB-ELASTIC =           0.0000     CSUB                             
      CSUB-INELASTIC =           0.0000        CSUB-INELASTIC =           0.0000     CSUB                             
      CSUB-WATERCOMP =           0.0000        CSUB-WATERCOMP =           0.0000     CSUB                             
                 CHD =           0.3393                   CHD =       7.4580E-03     CHD_0                            

           TOTAL OUT =           0.3393             TOTAL OUT =       7.4580E-03

            IN - OUT =       2.8635E-09              IN - OUT =       1.1766E-10

 PERCENT DISCREPANCY =           0.00     PERCENT DISCREPANCY =           0.00




         TIME SUMMARY AT END OF TIME STEP   34 IN STRESS PERIOD    1
                    SECONDS     MINUTES      HOURS       DAYS        YEARS
                    -----------------------------------------------------------
   TIME STEP LENGTH 1.65621E+05  2760.4      46.006      1.9169     5.24822E-03
 STRESS PERIOD TIME 2.81598E+06  46933.      782.22      32.592     8.92331E-02
         TOTAL TIME 2.81598E+06  46933.      782.22      32.592     8.92331E-02


end timestep


start timestep kper="1" kstp="35" mode="normal"



  VOLUME BUDGET FOR ENTIRE MODEL AT END OF TIME STEP   35, STRESS PERIOD   1
  ---------------------------------------------------------------------------------------------------

     CUMULATIVE VOLUME      L**3       RATES FOR THIS TIME STEP      L**3/T          PACKAGE NAME    
     ------------------                 ------------------------                     ----------------

           IN:                                      IN:
           ---                                      ---
              STO-SS =           0.0000                STO-SS =           0.0000     STORAGE                          
      CSUB-CGELASTIC =           0.0000        CSUB-CGELASTIC =           0.0000     CSUB                             
        CSUB-ELASTIC =           0.0000          CSUB-ELASTIC =           0.0000     CSUB                             
      CSUB-INELASTIC =           0.3539        CSUB-INELASTIC =       7.2219E-03     CSUB                             
      CSUB-WATERCOMP =           0.0000        CSUB-WATERCOMP =           0.0000     CSUB                             
                 CHD =           0.0000                   CHD =           0.0000     CHD_0                            

            TOTAL IN =           0.3539              TOTAL IN =       7.2219E-03

          OUT:                                     OUT:
          ----                                     ----
              STO-SS =           0.0000                STO-SS =           0.0000     STORAGE                          
      CSUB-CGELASTIC =           0.0000        CSUB-CGELASTIC =           0.0000     CSUB                             
        CSUB-ELASTIC =           0.0000          CSUB-ELASTIC =           0.0000     CSUB                             
      CSUB-INELASTIC =           0.0000        CSUB-INELASTIC =           0.0000     CSUB                             
      CSUB-WATERCOMP =           0.0000        CSUB-WATERCOMP =           0.0000     CSUB                             
                 CHD =           0.3539                   CHD =       7.2219E-03     CHD_0                            

           TOTAL OUT =           0.3539             TOTAL OUT =       7.2219E-03

            IN - OUT =       3.1127E-09              IN - OUT =       1.2377E-10

 PERCENT DISCREPANCY =           0.00     PERCENT DISCREPANCY =           0.00




         TIME SUMMARY AT END OF TIME STEP   35 IN STRESS PERIOD    1
                    SECONDS     MINUTES      HOURS       DAYS        YEARS
                    -----------------------------------------------------------
   TIME STEP LENGTH 1.73902E+05  2898.4      48.306      2.0128     5.51063E-03
 STRESS PERIOD TIME 2.98988E+06  49831.      830.52      34.605     9.47437E-02
         TOTAL TIME 2.98988E+06  49831.      830.52      34.605     9.47437E-02


end timestep


start timestep kper="1" kstp="36" mode="normal"



  VOLUME BUDGET FOR ENTIRE MODEL AT END OF TIME STEP   36, STRESS PERIOD   1
  ---------------------------------------------------------------------------------------------------

     CUMULATIVE VOLUME      L**3       RATES FOR THIS TIME STEP      L**3/T          PACKAGE NAME    
     ------------------                 ------------------------                     ----------------

           IN:                                      IN:
           ---                                      ---
              STO-SS =           0.0000                STO-SS =           0.0000     STORAGE                          
      CSUB-CGELASTIC =           0.0000        CSUB-CGELASTIC =           0.0000     CSUB                             
        CSUB-ELASTIC =           0.0000          CSUB-ELASTIC =           0.0000     CSUB                             
      CSUB-INELASTIC =           0.3687        CSUB-INELASTIC =       6.9907E-03     CSUB                             
      CSUB-WATERCOMP =           0.0000        CSUB-WATERCOMP =           0.0000     CSUB                             
                 CHD =           0.0000                   CHD =           0.0000     CHD_0                            

            TOTAL IN =           0.3687              TOTAL IN =       6.9907E-03

          OUT:                                     OUT:
          ----                                     ----
              STO-SS =           0.0000                STO-SS =           0.0000     STORAGE                          
      CSUB-CGELASTIC =           0.0000        CSUB-CGELASTIC =           0.0000     CSUB                             
        CSUB-ELASTIC =           0.0000          CSUB-ELASTIC =           0.0000     CSUB                             
      CSUB-INELASTIC =           0.0000        CSUB-INELASTIC =           0.0000     CSUB                             
      CSUB-WATERCOMP =           0.0000        CSUB-WATERCOMP =           0.0000     CSUB                             
                 CHD =           0.3687                   CHD =       6.9907E-03     CHD_0                            

           TOTAL OUT =           0.3687             TOTAL OUT =       6.9907E-03

            IN - OUT =       3.3885E-09              IN - OUT =       1.3050E-10

 PERCENT DISCREPANCY =           0.00     PERCENT DISCREPANCY =           0.00




         TIME SUMMARY AT END OF TIME STEP   36 IN STRESS PERIOD    1
                    SECONDS     MINUTES      HOURS       DAYS        YEARS
                    -----------------------------------------------------------
   TIME STEP LENGTH 1.82597E+05  3043.3      50.721      2.1134     5.78616E-03
 STRESS PERIOD TIME 3.17248E+06  52875.      881.25      36.719     0.10053    
         TOTAL TIME 3.17248E+06  52875.      881.25      36.719     0.10053    


end timestep


start timestep kper="1" kstp="37" mode="normal"



  VOLUME BUDGET FOR ENTIRE MODEL AT END OF TIME STEP   37, STRESS PERIOD   1
  ---------------------------------------------------------------------------------------------------

     CUMULATIVE VOLUME      L**3       RATES FOR THIS TIME STEP      L**3/T          PACKAGE NAME    
     ------------------                 ------------------------                     ----------------

           IN:                                      IN:
           ---                                      ---
              STO-SS =           0.0000                STO-SS =           0.0000     STORAGE                          
      CSUB-CGELASTIC =           0.0000        CSUB-CGELASTIC =           0.0000     CSUB                             
        CSUB-ELASTIC =           0.0000          CSUB-ELASTIC =           0.0000     CSUB                             
      CSUB-INELASTIC =           0.3837        CSUB-INELASTIC =       6.7646E-03     CSUB                             
      CSUB-WATERCOMP =           0.0000        CSUB-WATERCOMP =           0.0000     CSUB                             
                 CHD =           0.0000                   CHD =           0.0000     CHD_0                            

            TOTAL IN =           0.3837              TOTAL IN =       6.7646E-03

          OUT:                                     OUT:
          ----                                     ----
              STO-SS =           0.0000                STO-SS =           0.0000     STORAGE                          
      CSUB-CGELASTIC =           0.0000        CSUB-CGELASTIC =           0.0000     CSUB                             
        CSUB-ELASTIC =           0.0000          CSUB-ELASTIC =           0.0000     CSUB                             
      CSUB-INELASTIC =           0.0000        CSUB-INELASTIC =           0.0000     CSUB                             
      CSUB-WATERCOMP =           0.0000        CSUB-WATERCOMP =           0.0000     CSUB                             
                 CHD =           0.3837                   CHD =       6.7646E-03     CHD_0                            

           TOTAL OUT =           0.3837             TOTAL OUT =       6.7646E-03

            IN - OUT =       3.6944E-09              IN - OUT =       1.3788E-10

 PERCENT DISCREPANCY =           0.00     PERCENT DISCREPANCY =           0.00




         TIME SUMMARY AT END OF TIME STEP   37 IN STRESS PERIOD    1
                    SECONDS     MINUTES      HOURS       DAYS        YEARS
                    -----------------------------------------------------------
   TIME STEP LENGTH 1.91727E+05  3195.5      53.258      2.2191     6.07547E-03
 STRESS PERIOD TIME 3.36421E+06  56070.      934.50      38.938     0.10661    
         TOTAL TIME 3.36421E+06  56070.      934.50      38.938     0.10661    


end timestep


start timestep kper="1" kstp="38" mode="normal"



  VOLUME BUDGET FOR ENTIRE MODEL AT END OF TIME STEP   38, STRESS PERIOD   1
  ---------------------------------------------------------------------------------------------------

     CUMULATIVE VOLUME      L**3       RATES FOR THIS TIME STEP      L**3/T          PACKAGE NAME    
     ------------------                 ------------------------                     ----------------

           IN:                                      IN:
           ---                                      ---
              STO-SS =           0.0000                STO-SS =           0.0000     STORAGE                          
      CSUB-CGELASTIC =           0.0000        CSUB-CGELASTIC =           0.0000     CSUB                             
        CSUB-ELASTIC =           0.0000          CSUB-ELASTIC =           0.0000     CSUB                             
      CSUB-INELASTIC =           0.3989        CSUB-INELASTIC =       6.5440E-03     CSUB                             
      CSUB-WATERCOMP =           0.0000        CSUB-WATERCOMP =           0.0000     CSUB                             
                 CHD =           0.0000                   CHD =           0.0000     CHD_0                            

            TOTAL IN =           0.3989              TOTAL IN =       6.5440E-03

          OUT:                                     OUT:
          ----                                     ----
              STO-SS =           0.0000                STO-SS =           0.0000     STORAGE                          
      CSUB-CGELASTIC =           0.0000        CSUB-CGELASTIC =           0.0000     CSUB                             
        CSUB-ELASTIC =           0.0000          CSUB-ELASTIC =           0.0000     CSUB                             
      CSUB-INELASTIC =           0.0000        CSUB-INELASTIC =           0.0000     CSUB                             
      CSUB-WATERCOMP =           0.0000        CSUB-WATERCOMP =           0.0000     CSUB                             
                 CHD =           0.3989                   CHD =       6.5440E-03     CHD_0                            

           TOTAL OUT =           0.3989             TOTAL OUT =       6.5440E-03

            IN - OUT =       4.0346E-09              IN - OUT =       1.4598E-10

 PERCENT DISCREPANCY =           0.00     PERCENT DISCREPANCY =           0.00




         TIME SUMMARY AT END OF TIME STEP   38 IN STRESS PERIOD    1
                    SECONDS     MINUTES      HOURS       DAYS        YEARS
                    -----------------------------------------------------------
   TIME STEP LENGTH 2.01314E+05  3355.2      55.920      2.3300     6.37924E-03
 STRESS PERIOD TIME 3.56552E+06  59425.      990.42      41.268     0.11298    
         TOTAL TIME 3.56552E+06  59425.      990.42      41.268     0.11298    


end timestep


start timestep kper="1" kstp="39" mode="normal"



  VOLUME BUDGET FOR ENTIRE MODEL AT END OF TIME STEP   39, STRESS PERIOD   1
  ---------------------------------------------------------------------------------------------------

     CUMULATIVE VOLUME      L**3       RATES FOR THIS TIME STEP      L**3/T          PACKAGE NAME    
     ------------------                 ------------------------                     ----------------

           IN:                                      IN:
           ---                                      ---
              STO-SS =           0.0000                STO-SS =           0.0000     STORAGE                          
      CSUB-CGELASTIC =           0.0000        CSUB-CGELASTIC =           0.0000     CSUB                             
        CSUB-ELASTIC =           0.0000          CSUB-ELASTIC =           0.0000     CSUB                             
      CSUB-INELASTIC =           0.4144        CSUB-INELASTIC =       6.3293E-03     CSUB                             
      CSUB-WATERCOMP =           0.0000        CSUB-WATERCOMP =           0.0000     CSUB                             
                 CHD =           0.0000                   CHD =           0.0000     CHD_0                            

            TOTAL IN =           0.4144              TOTAL IN =       6.3293E-03

          OUT:                                     OUT:
          ----                                     ----
              STO-SS =           0.0000                STO-SS =           0.0000     STORAGE                          
      CSUB-CGELASTIC =           0.0000        CSUB-CGELASTIC =           0.0000     CSUB                             
        CSUB-ELASTIC =           0.0000          CSUB-ELASTIC =           0.0000     CSUB                             
      CSUB-INELASTIC =           0.0000        CSUB-INELASTIC =           0.0000     CSUB                             
      CSUB-WATERCOMP =           0.0000        CSUB-WATERCOMP =           0.0000     CSUB                             
                 CHD =           0.4144                   CHD =       6.3293E-03     CHD_0                            

           TOTAL OUT =           0.4144             TOTAL OUT =       6.3293E-03

            IN - OUT =       4.4133E-09              IN - OUT =       1.5481E-10

 PERCENT DISCREPANCY =           0.00     PERCENT DISCREPANCY =           0.00




         TIME SUMMARY AT END OF TIME STEP   39 IN STRESS PERIOD    1
                    SECONDS     MINUTES      HOURS       DAYS        YEARS
                    -----------------------------------------------------------
   TIME STEP LENGTH 2.11379E+05  3523.0      58.716      2.4465     6.69821E-03
 STRESS PERIOD TIME 3.77690E+06  62948.      1049.1      43.714     0.11968    
         TOTAL TIME 3.77690E+06  62948.      1049.1      43.714     0.11968    


end timestep


start timestep kper="1" kstp="40" mode="normal"



  VOLUME BUDGET FOR ENTIRE MODEL AT END OF TIME STEP   40, STRESS PERIOD   1
  ---------------------------------------------------------------------------------------------------

     CUMULATIVE VOLUME      L**3       RATES FOR THIS TIME STEP      L**3/T          PACKAGE NAME    
     ------------------                 ------------------------                     ----------------

           IN:                                      IN:
           ---                                      ---
              STO-SS =           0.0000                STO-SS =           0.0000     STORAGE                          
      CSUB-CGELASTIC =           0.0000        CSUB-CGELASTIC =           0.0000     CSUB                             
        CSUB-ELASTIC =           0.0000          CSUB-ELASTIC =           0.0000     CSUB                             
      CSUB-INELASTIC =           0.4301        CSUB-INELASTIC =       6.1207E-03     CSUB                             
      CSUB-WATERCOMP =           0.0000        CSUB-WATERCOMP =           0.0000     CSUB                             
                 CHD =           0.0000                   CHD =           0.0000     CHD_0                            

            TOTAL IN =           0.4301              TOTAL IN =       6.1207E-03

          OUT:                                     OUT:
          ----                                     ----
              STO-SS =           0.0000                STO-SS =           0.0000     STORAGE                          
      CSUB-CGELASTIC =           0.0000        CSUB-CGELASTIC =           0.0000     CSUB                             
        CSUB-ELASTIC =           0.0000          CSUB-ELASTIC =           0.0000     CSUB                             
      CSUB-INELASTIC =           0.0000        CSUB-INELASTIC =           0.0000     CSUB                             
      CSUB-WATERCOMP =           0.0000        CSUB-WATERCOMP =           0.0000     CSUB                             
                 CHD =           0.4301                   CHD =       6.1207E-03     CHD_0                            

           TOTAL OUT =           0.4301             TOTAL OUT =       6.1207E-03

            IN - OUT =       4.8358E-09              IN - OUT =       1.6445E-10

 PERCENT DISCREPANCY =           0.00     PERCENT DISCREPANCY =           0.00




         TIME SUMMARY AT END OF TIME STEP   40 IN STRESS PERIOD    1
                    SECONDS     MINUTES      HOURS       DAYS        YEARS
                    -----------------------------------------------------------
   TIME STEP LENGTH 2.21948E+05  3699.1      61.652      2.5688     7.03312E-03
 STRESS PERIOD TIME 3.99885E+06  66648.      1110.8      46.283     0.12672    
         TOTAL TIME 3.99885E+06  66648.      1110.8      46.283     0.12672    


end timestep


start timestep kper="1" kstp="41" mode="normal"



  VOLUME BUDGET FOR ENTIRE MODEL AT END OF TIME STEP   41, STRESS PERIOD   1
  ---------------------------------------------------------------------------------------------------

     CUMULATIVE VOLUME      L**3       RATES FOR THIS TIME STEP      L**3/T          PACKAGE NAME    
     ------------------                 ------------------------                     ----------------

           IN:                                      IN:
           ---                                      ---
              STO-SS =           0.0000                STO-SS =           0.0000     STORAGE                          
      CSUB-CGELASTIC =           0.0000        CSUB-CGELASTIC =           0.0000     CSUB                             
        CSUB-ELASTIC =           0.0000          CSUB-ELASTIC =           0.0000     CSUB                             
      CSUB-INELASTIC =           0.4461        CSUB-INELASTIC =       5.9184E-03     CSUB                             
      CSUB-WATERCOMP =           0.0000        CSUB-WATERCOMP =           0.0000     CSUB                             
                 CHD =           0.0000                   CHD =           0.0000     CHD_0                            

            TOTAL IN =           0.4461              TOTAL IN =       5.9184E-03

          OUT:                                     OUT:
          ----                                     ----
              STO-SS =           0.0000                STO-SS =           0.0000     STORAGE                          
      CSUB-CGELASTIC =           0.0000        CSUB-CGELASTIC =           0.0000     CSUB                             
        CSUB-ELASTIC =           0.0000          CSUB-ELASTIC =           0.0000     CSUB                             
      CSUB-INELASTIC =           0.0000        CSUB-INELASTIC =           0.0000     CSUB                             
      CSUB-WATERCOMP =           0.0000        CSUB-WATERCOMP =           0.0000     CSUB                             
                 CHD =           0.4461                   CHD =       5.9184E-03     CHD_0                            

           TOTAL OUT =           0.4461             TOTAL OUT =       5.9184E-03

            IN - OUT =       5.3076E-09              IN - OUT =       1.7493E-10

 PERCENT DISCREPANCY =           0.00     PERCENT DISCREPANCY =           0.00




         TIME SUMMARY AT END OF TIME STEP   41 IN STRESS PERIOD    1
                    SECONDS     MINUTES      HOURS       DAYS        YEARS
                    -----------------------------------------------------------
   TIME STEP LENGTH 2.33046E+05  3884.1      64.735      2.6973     7.38477E-03
 STRESS PERIOD TIME 4.23190E+06  70532.      1175.5      48.980     0.13410    
         TOTAL TIME 4.23190E+06  70532.      1175.5      48.980     0.13410    


end timestep


start timestep kper="1" kstp="42" mode="normal"



  VOLUME BUDGET FOR ENTIRE MODEL AT END OF TIME STEP   42, STRESS PERIOD   1
  ---------------------------------------------------------------------------------------------------

     CUMULATIVE VOLUME      L**3       RATES FOR THIS TIME STEP      L**3/T          PACKAGE NAME    
     ------------------                 ------------------------                     ----------------

           IN:                                      IN:
           ---                                      ---
              STO-SS =           0.0000                STO-SS =           0.0000     STORAGE                          
      CSUB-CGELASTIC =           0.0000        CSUB-CGELASTIC =           0.0000     CSUB                             
        CSUB-ELASTIC =           0.0000          CSUB-ELASTIC =           0.0000     CSUB                             
      CSUB-INELASTIC =           0.4623        CSUB-INELASTIC =       5.7226E-03     CSUB                             
      CSUB-WATERCOMP =           0.0000        CSUB-WATERCOMP =           0.0000     CSUB                             
                 CHD =           0.0000                   CHD =           0.0000     CHD_0                            

            TOTAL IN =           0.4623              TOTAL IN =       5.7226E-03

          OUT:                                     OUT:
          ----                                     ----
              STO-SS =           0.0000                STO-SS =           0.0000     STORAGE                          
      CSUB-CGELASTIC =           0.0000        CSUB-CGELASTIC =           0.0000     CSUB                             
        CSUB-ELASTIC =           0.0000          CSUB-ELASTIC =           0.0000     CSUB                             
      CSUB-INELASTIC =           0.0000        CSUB-INELASTIC =           0.0000     CSUB                             
      CSUB-WATERCOMP =           0.0000        CSUB-WATERCOMP =           0.0000     CSUB                             
                 CHD =           0.4623                   CHD =       5.7226E-03     CHD_0                            

           TOTAL OUT =           0.4623             TOTAL OUT =       5.7226E-03

            IN - OUT =       5.8352E-09              IN - OUT =       1.8629E-10

 PERCENT DISCREPANCY =           0.00     PERCENT DISCREPANCY =           0.00




         TIME SUMMARY AT END OF TIME STEP   42 IN STRESS PERIOD    1
                    SECONDS     MINUTES      HOURS       DAYS        YEARS
                    -----------------------------------------------------------
   TIME STEP LENGTH 2.44698E+05  4078.3      67.972      2.8322     7.75401E-03
 STRESS PERIOD TIME 4.47659E+06  74610.      1243.5      51.812     0.14185    
         TOTAL TIME 4.47659E+06  74610.      1243.5      51.812     0.14185    


end timestep


start timestep kper="1" kstp="43" mode="normal"



  VOLUME BUDGET FOR ENTIRE MODEL AT END OF TIME STEP   43, STRESS PERIOD   1
  ---------------------------------------------------------------------------------------------------

     CUMULATIVE VOLUME      L**3       RATES FOR THIS TIME STEP      L**3/T          PACKAGE NAME    
     ------------------                 ------------------------                     ----------------

           IN:                                      IN:
           ---                                      ---
              STO-SS =           0.0000                STO-SS =           0.0000     STORAGE                          
      CSUB-CGELASTIC =           0.0000        CSUB-CGELASTIC =           0.0000     CSUB                             
        CSUB-ELASTIC =           0.0000          CSUB-ELASTIC =           0.0000     CSUB                             
      CSUB-INELASTIC =           0.4787        CSUB-INELASTIC =       5.5334E-03     CSUB                             
      CSUB-WATERCOMP =           0.0000        CSUB-WATERCOMP =           0.0000     CSUB                             
                 CHD =           0.0000                   CHD =           0.0000     CHD_0                            

            TOTAL IN =           0.4787              TOTAL IN =       5.5334E-03

          OUT:                                     OUT:
          ----                                     ----
              STO-SS =           0.0000                STO-SS =           0.0000     STORAGE                          
      CSUB-CGELASTIC =           0.0000        CSUB-CGELASTIC =           0.0000     CSUB                             
        CSUB-ELASTIC =           0.0000          CSUB-ELASTIC =           0.0000     CSUB                             
      CSUB-INELASTIC =           0.0000        CSUB-INELASTIC =           0.0000     CSUB                             
      CSUB-WATERCOMP =           0.0000        CSUB-WATERCOMP =           0.0000     CSUB                             
                 CHD =           0.4787                   CHD =       5.5334E-03     CHD_0                            

           TOTAL OUT =           0.4787             TOTAL OUT =       5.5334E-03

            IN - OUT =       6.4258E-09              IN - OUT =       1.9858E-10

 PERCENT DISCREPANCY =           0.00     PERCENT DISCREPANCY =           0.00




         TIME SUMMARY AT END OF TIME STEP   43 IN STRESS PERIOD    1
                    SECONDS     MINUTES      HOURS       DAYS        YEARS
                    -----------------------------------------------------------
   TIME STEP LENGTH 2.56933E+05  4282.2      71.370      2.9738     8.14171E-03
 STRESS PERIOD TIME 4.73353E+06  78892.      1314.9      54.786     0.15000    
         TOTAL TIME 4.73353E+06  78892.      1314.9      54.786     0.15000    


end timestep


start timestep kper="1" kstp="44" mode="normal"



  VOLUME BUDGET FOR ENTIRE MODEL AT END OF TIME STEP   44, STRESS PERIOD   1
  ---------------------------------------------------------------------------------------------------

     CUMULATIVE VOLUME      L**3       RATES FOR THIS TIME STEP      L**3/T          PACKAGE NAME    
     ------------------                 ------------------------                     ----------------

           IN:                                      IN:
           ---                                      ---
              STO-SS =           0.0000                STO-SS =           0.0000     STORAGE                          
      CSUB-CGELASTIC =           0.0000        CSUB-CGELASTIC =           0.0000     CSUB                             
        CSUB-ELASTIC =           0.0000          CSUB-ELASTIC =           0.0000     CSUB                             
      CSUB-INELASTIC =           0.4955        CSUB-INELASTIC =       5.3508E-03     CSUB                             
      CSUB-WATERCOMP =           0.0000        CSUB-WATERCOMP =           0.0000     CSUB                             
                 CHD =           0.0000                   CHD =           0.0000     CHD_0                            

            TOTAL IN =           0.4955              TOTAL IN =       5.3508E-03

          OUT:                                     OUT:
          ----                                     ----
              STO-SS =           0.0000                STO-SS =           0.0000     STORAGE                          
      CSUB-CGELASTIC =           0.0000        CSUB-CGELASTIC =           0.0000     CSUB                             
        CSUB-ELASTIC =           0.0000          CSUB-ELASTIC =           0.0000     CSUB                             
      CSUB-INELASTIC =           0.0000        CSUB-INELASTIC =           0.0000     CSUB                             
      CSUB-WATERCOMP =           0.0000        CSUB-WATERCOMP =           0.0000     CSUB                             
                 CHD =           0.4955                   CHD =       5.3508E-03     CHD_0                            

           TOTAL OUT =           0.4955             TOTAL OUT =       5.3508E-03

            IN - OUT =       7.0872E-09              IN - OUT =       2.1182E-10

 PERCENT DISCREPANCY =           0.00     PERCENT DISCREPANCY =           0.00




         TIME SUMMARY AT END OF TIME STEP   44 IN STRESS PERIOD    1
                    SECONDS     MINUTES      HOURS       DAYS        YEARS
                    -----------------------------------------------------------
   TIME STEP LENGTH 2.69779E+05  4496.3      74.939      3.1224     8.54880E-03
 STRESS PERIOD TIME 5.00331E+06  83388.      1389.8      57.909     0.15855    
         TOTAL TIME 5.00331E+06  83388.      1389.8      57.909     0.15855    


end timestep


start timestep kper="1" kstp="45" mode="normal"



  VOLUME BUDGET FOR ENTIRE MODEL AT END OF TIME STEP   45, STRESS PERIOD   1
  ---------------------------------------------------------------------------------------------------

     CUMULATIVE VOLUME      L**3       RATES FOR THIS TIME STEP      L**3/T          PACKAGE NAME    
     ------------------                 ------------------------                     ----------------

           IN:                                      IN:
           ---                                      ---
              STO-SS =           0.0000                STO-SS =           0.0000     STORAGE                          
      CSUB-CGELASTIC =           0.0000        CSUB-CGELASTIC =           0.0000     CSUB                             
        CSUB-ELASTIC =           0.0000          CSUB-ELASTIC =           0.0000     CSUB                             
      CSUB-INELASTIC =           0.5124        CSUB-INELASTIC =       5.1750E-03     CSUB                             
      CSUB-WATERCOMP =           0.0000        CSUB-WATERCOMP =           0.0000     CSUB                             
                 CHD =           0.0000                   CHD =           0.0000     CHD_0                            

            TOTAL IN =           0.5124              TOTAL IN =       5.1750E-03

          OUT:                                     OUT:
          ----                                     ----
              STO-SS =           0.0000                STO-SS =           0.0000     STORAGE                          
      CSUB-CGELASTIC =           0.0000        CSUB-CGELASTIC =           0.0000     CSUB                             
        CSUB-ELASTIC =           0.0000          CSUB-ELASTIC =           0.0000     CSUB                             
      CSUB-INELASTIC =           0.0000        CSUB-INELASTIC =           0.0000     CSUB                             
      CSUB-WATERCOMP =           0.0000        CSUB-WATERCOMP =           0.0000     CSUB                             
                 CHD =           0.5124                   CHD =       5.1750E-03     CHD_0                            

           TOTAL OUT =           0.5124             TOTAL OUT =       5.1750E-03

            IN - OUT =       7.8282E-09              IN - OUT =       2.2603E-10

 PERCENT DISCREPANCY =           0.00     PERCENT DISCREPANCY =           0.00




         TIME SUMMARY AT END OF TIME STEP   45 IN STRESS PERIOD    1
                    SECONDS     MINUTES      HOURS       DAYS        YEARS
                    -----------------------------------------------------------
   TIME STEP LENGTH 2.83268E+05  4721.1      78.686      3.2786     8.97624E-03
 STRESS PERIOD TIME 5.28657E+06  88110.      1468.5      61.187     0.16752    
         TOTAL TIME 5.28657E+06  88110.      1468.5      61.187     0.16752    


end timestep


start timestep kper="1" kstp="46" mode="normal"



  VOLUME BUDGET FOR ENTIRE MODEL AT END OF TIME STEP   46, STRESS PERIOD   1
  ---------------------------------------------------------------------------------------------------

     CUMULATIVE VOLUME      L**3       RATES FOR THIS TIME STEP      L**3/T          PACKAGE NAME    
     ------------------                 ------------------------                     ----------------

           IN:                                      IN:
           ---                                      ---
              STO-SS =           0.0000                STO-SS =           0.0000     STORAGE                          
      CSUB-CGELASTIC =           0.0000        CSUB-CGELASTIC =           0.0000     CSUB                             
        CSUB-ELASTIC =           0.0000          CSUB-ELASTIC =           0.0000     CSUB                             
      CSUB-INELASTIC =           0.5297        CSUB-INELASTIC =       5.0059E-03     CSUB                             
      CSUB-WATERCOMP =           0.0000        CSUB-WATERCOMP =           0.0000     CSUB                             
                 CHD =           0.0000                   CHD =           0.0000     CHD_0                            

            TOTAL IN =           0.5297              TOTAL IN =       5.0059E-03

          OUT:                                     OUT:
          ----                                     ----
              STO-SS =           0.0000                STO-SS =           0.0000     STORAGE                          
      CSUB-CGELASTIC =           0.0000        CSUB-CGELASTIC =           0.0000     CSUB                             
        CSUB-ELASTIC =           0.0000          CSUB-ELASTIC =           0.0000     CSUB                             
      CSUB-INELASTIC =           0.0000        CSUB-INELASTIC =           0.0000     CSUB                             
      CSUB-WATERCOMP =           0.0000        CSUB-WATERCOMP =           0.0000     CSUB                             
                 CHD =           0.5297                   CHD =       5.0059E-03     CHD_0                            

           TOTAL OUT =           0.5297             TOTAL OUT =       5.0059E-03

            IN - OUT =       8.6587E-09              IN - OUT =       2.4123E-10

 PERCENT DISCREPANCY =           0.00     PERCENT DISCREPANCY =           0.00




         TIME SUMMARY AT END OF TIME STEP   46 IN STRESS PERIOD    1
                    SECONDS     MINUTES      HOURS       DAYS        YEARS
                    -----------------------------------------------------------
   TIME STEP LENGTH 2.97432E+05  4957.2      82.620      3.4425     9.42505E-03
 STRESS PERIOD TIME 5.58401E+06  93067.      1551.1      64.630     0.17695    
         TOTAL TIME 5.58401E+06  93067.      1551.1      64.630     0.17695    


end timestep


start timestep kper="1" kstp="47" mode="normal"



  VOLUME BUDGET FOR ENTIRE MODEL AT END OF TIME STEP   47, STRESS PERIOD   1
  ---------------------------------------------------------------------------------------------------

     CUMULATIVE VOLUME      L**3       RATES FOR THIS TIME STEP      L**3/T          PACKAGE NAME    
     ------------------                 ------------------------                     ----------------

           IN:                                      IN:
           ---                                      ---
              STO-SS =           0.0000                STO-SS =           0.0000     STORAGE                          
      CSUB-CGELASTIC =           0.0000        CSUB-CGELASTIC =           0.0000     CSUB                             
        CSUB-ELASTIC =           0.0000          CSUB-ELASTIC =           0.0000     CSUB                             
      CSUB-INELASTIC =           0.5472        CSUB-INELASTIC =       4.8434E-03     CSUB                             
      CSUB-WATERCOMP =           0.0000        CSUB-WATERCOMP =           0.0000     CSUB                             
                 CHD =           0.0000                   CHD =           0.0000     CHD_0                            

            TOTAL IN =           0.5472              TOTAL IN =       4.8434E-03

          OUT:                                     OUT:
          ----                                     ----
              STO-SS =           0.0000                STO-SS =           0.0000     STORAGE                          
      CSUB-CGELASTIC =           0.0000        CSUB-CGELASTIC =           0.0000     CSUB                             
        CSUB-ELASTIC =           0.0000          CSUB-ELASTIC =           0.0000     CSUB                             
      CSUB-INELASTIC =           0.0000        CSUB-INELASTIC =           0.0000     CSUB                             
      CSUB-WATERCOMP =           0.0000        CSUB-WATERCOMP =           0.0000     CSUB                             
                 CHD =           0.5472                   CHD =       4.8434E-03     CHD_0                            

           TOTAL OUT =           0.5472             TOTAL OUT =       4.8434E-03

            IN - OUT =       9.5892E-09              IN - OUT =       2.5743E-10

 PERCENT DISCREPANCY =           0.00     PERCENT DISCREPANCY =           0.00




         TIME SUMMARY AT END OF TIME STEP   47 IN STRESS PERIOD    1
                    SECONDS     MINUTES      HOURS       DAYS        YEARS
                    -----------------------------------------------------------
   TIME STEP LENGTH 3.12303E+05  5205.1      86.751      3.6146     9.89630E-03
 STRESS PERIOD TIME 5.89631E+06  98272.      1637.9      68.244     0.18684    
         TOTAL TIME 5.89631E+06  98272.      1637.9      68.244     0.18684    


end timestep


start timestep kper="1" kstp="48" mode="normal"



  VOLUME BUDGET FOR ENTIRE MODEL AT END OF TIME STEP   48, STRESS PERIOD   1
  ---------------------------------------------------------------------------------------------------

     CUMULATIVE VOLUME      L**3       RATES FOR THIS TIME STEP      L**3/T          PACKAGE NAME    
     ------------------                 ------------------------                     ----------------

           IN:                                      IN:
           ---                                      ---
              STO-SS =           0.0000                STO-SS =           0.0000     STORAGE                          
      CSUB-CGELASTIC =           0.0000        CSUB-CGELASTIC =           0.0000     CSUB                             
        CSUB-ELASTIC =           0.0000          CSUB-ELASTIC =           0.0000     CSUB                             
      CSUB-INELASTIC =           0.5650        CSUB-INELASTIC =       4.6873E-03     CSUB                             
      CSUB-WATERCOMP =           0.0000        CSUB-WATERCOMP =           0.0000     CSUB                             
                 CHD =           0.0000                   CHD =           0.0000     CHD_0                            

            TOTAL IN =           0.5650              TOTAL IN =       4.6873E-03

          OUT:                                     OUT:
          ----                                     ----
              STO-SS =           0.0000                STO-SS =           0.0000     STORAGE                          
      CSUB-CGELASTIC =           0.0000        CSUB-CGELASTIC =           0.0000     CSUB                             
        CSUB-ELASTIC =           0.0000          CSUB-ELASTIC =           0.0000     CSUB                             
      CSUB-INELASTIC =           0.0000        CSUB-INELASTIC =           0.0000     CSUB                             
      CSUB-WATERCOMP =           0.0000        CSUB-WATERCOMP =           0.0000     CSUB                             
                 CHD =           0.5650                   CHD =       4.6873E-03     CHD_0                            

           TOTAL OUT =           0.5650             TOTAL OUT =       4.6873E-03

            IN - OUT =       1.0631E-08              IN - OUT =       2.7462E-10

 PERCENT DISCREPANCY =           0.00     PERCENT DISCREPANCY =           0.00




         TIME SUMMARY AT END OF TIME STEP   48 IN STRESS PERIOD    1
                    SECONDS     MINUTES      HOURS       DAYS        YEARS
                    -----------------------------------------------------------
   TIME STEP LENGTH 3.27919E+05  5465.3      91.089      3.7954     1.03911E-02
 STRESS PERIOD TIME 6.22423E+06 1.03737E+05  1729.0      72.040     0.19723    
         TOTAL TIME 6.22423E+06 1.03737E+05  1729.0      72.040     0.19723    


end timestep


start timestep kper="1" kstp="49" mode="normal"



  VOLUME BUDGET FOR ENTIRE MODEL AT END OF TIME STEP   49, STRESS PERIOD   1
  ---------------------------------------------------------------------------------------------------

     CUMULATIVE VOLUME      L**3       RATES FOR THIS TIME STEP      L**3/T          PACKAGE NAME    
     ------------------                 ------------------------                     ----------------

           IN:                                      IN:
           ---                                      ---
              STO-SS =           0.0000                STO-SS =           0.0000     STORAGE                          
      CSUB-CGELASTIC =           0.0000        CSUB-CGELASTIC =           0.0000     CSUB                             
        CSUB-ELASTIC =           0.0000          CSUB-ELASTIC =           0.0000     CSUB                             
      CSUB-INELASTIC =           0.5830        CSUB-INELASTIC =       4.5377E-03     CSUB                             
      CSUB-WATERCOMP =           0.0000        CSUB-WATERCOMP =           0.0000     CSUB                             
                 CHD =           0.0000                   CHD =           0.0000     CHD_0                            

            TOTAL IN =           0.5830              TOTAL IN =       4.5377E-03

          OUT:                                     OUT:
          ----                                     ----
              STO-SS =           0.0000                STO-SS =           0.0000     STORAGE                          
      CSUB-CGELASTIC =           0.0000        CSUB-CGELASTIC =           0.0000     CSUB                             
        CSUB-ELASTIC =           0.0000          CSUB-ELASTIC =           0.0000     CSUB                             
      CSUB-INELASTIC =           0.0000        CSUB-INELASTIC =           0.0000     CSUB                             
      CSUB-WATERCOMP =           0.0000        CSUB-WATERCOMP =           0.0000     CSUB                             
                 CHD =           0.5830                   CHD =       4.5377E-03     CHD_0                            

           TOTAL OUT =           0.5830             TOTAL OUT =       4.5377E-03

            IN - OUT =       1.1798E-08              IN - OUT =       2.9277E-10

 PERCENT DISCREPANCY =           0.00     PERCENT DISCREPANCY =           0.00




         TIME SUMMARY AT END OF TIME STEP   49 IN STRESS PERIOD    1
                    SECONDS     MINUTES      HOURS       DAYS        YEARS
                    -----------------------------------------------------------
   TIME STEP LENGTH 3.44315E+05  5738.6      95.643      3.9851     1.09107E-02
 STRESS PERIOD TIME 6.56854E+06 1.09476E+05  1824.6      76.025     0.20814    
         TOTAL TIME 6.56854E+06 1.09476E+05  1824.6      76.025     0.20814    


end timestep


start timestep kper="1" kstp="50" mode="normal"



  VOLUME BUDGET FOR ENTIRE MODEL AT END OF TIME STEP   50, STRESS PERIOD   1
  ---------------------------------------------------------------------------------------------------

     CUMULATIVE VOLUME      L**3       RATES FOR THIS TIME STEP      L**3/T          PACKAGE NAME    
     ------------------                 ------------------------                     ----------------

           IN:                                      IN:
           ---                                      ---
              STO-SS =           0.0000                STO-SS =           0.0000     STORAGE                          
      CSUB-CGELASTIC =           0.0000        CSUB-CGELASTIC =           0.0000     CSUB                             
        CSUB-ELASTIC =           0.0000          CSUB-ELASTIC =           0.0000     CSUB                             
      CSUB-INELASTIC =           0.6014        CSUB-INELASTIC =       4.3943E-03     CSUB                             
      CSUB-WATERCOMP =           0.0000        CSUB-WATERCOMP =           0.0000     CSUB                             
                 CHD =           0.0000                   CHD =           0.0000     CHD_0                            

            TOTAL IN =           0.6014              TOTAL IN =       4.3943E-03

          OUT:                                     OUT:
          ----                                     ----
              STO-SS =           0.0000                STO-SS =           0.0000     STORAGE                          
      CSUB-CGELASTIC =           0.0000        CSUB-CGELASTIC =           0.0000     CSUB                             
        CSUB-ELASTIC =           0.0000          CSUB-ELASTIC =           0.0000     CSUB                             
      CSUB-INELASTIC =           0.0000        CSUB-INELASTIC =           0.0000     CSUB                             
      CSUB-WATERCOMP =           0.0000        CSUB-WATERCOMP =           0.0000     CSUB                             
                 CHD =           0.6014                   CHD =       4.3943E-03     CHD_0                            

           TOTAL OUT =           0.6014             TOTAL OUT =       4.3943E-03

            IN - OUT =       1.3103E-08              IN - OUT =       3.1186E-10

 PERCENT DISCREPANCY =           0.00     PERCENT DISCREPANCY =           0.00




         TIME SUMMARY AT END OF TIME STEP   50 IN STRESS PERIOD    1
                    SECONDS     MINUTES      HOURS       DAYS        YEARS
                    -----------------------------------------------------------
   TIME STEP LENGTH 3.61530E+05  6025.5      100.43      4.1844     1.14562E-02
 STRESS PERIOD TIME 6.93007E+06 1.15501E+05  1925.0      80.209     0.21960    
         TOTAL TIME 6.93007E+06 1.15501E+05  1925.0      80.209     0.21960    


end timestep


start timestep kper="1" kstp="51" mode="normal"



  VOLUME BUDGET FOR ENTIRE MODEL AT END OF TIME STEP   51, STRESS PERIOD   1
  ---------------------------------------------------------------------------------------------------

     CUMULATIVE VOLUME      L**3       RATES FOR THIS TIME STEP      L**3/T          PACKAGE NAME    
     ------------------                 ------------------------                     ----------------

           IN:                                      IN:
           ---                                      ---
              STO-SS =           0.0000                STO-SS =           0.0000     STORAGE                          
      CSUB-CGELASTIC =           0.0000        CSUB-CGELASTIC =           0.0000     CSUB                             
        CSUB-ELASTIC =           0.0000          CSUB-ELASTIC =           0.0000     CSUB                             
      CSUB-INELASTIC =           0.6201        CSUB-INELASTIC =       4.2568E-03     CSUB                             
      CSUB-WATERCOMP =           0.0000        CSUB-WATERCOMP =           0.0000     CSUB                             
                 CHD =           0.0000                   CHD =           0.0000     CHD_0                            

            TOTAL IN =           0.6201              TOTAL IN =       4.2568E-03

          OUT:                                     OUT:
          ----                                     ----
              STO-SS =           0.0000                STO-SS =           0.0000     STORAGE                          
      CSUB-CGELASTIC =           0.0000        CSUB-CGELASTIC =           0.0000     CSUB                             
        CSUB-ELASTIC =           0.0000          CSUB-ELASTIC =           0.0000     CSUB                             
      CSUB-INELASTIC =           0.0000        CSUB-INELASTIC =           0.0000     CSUB                             
      CSUB-WATERCOMP =           0.0000        CSUB-WATERCOMP =           0.0000     CSUB                             
                 CHD =           0.6201                   CHD =       4.2568E-03     CHD_0                            

           TOTAL OUT =           0.6201             TOTAL OUT =       4.2568E-03

            IN - OUT =       1.4561E-08              IN - OUT =       3.3185E-10

 PERCENT DISCREPANCY =           0.00     PERCENT DISCREPANCY =           0.00




         TIME SUMMARY AT END OF TIME STEP   51 IN STRESS PERIOD    1
                    SECONDS     MINUTES      HOURS       DAYS        YEARS
                    -----------------------------------------------------------
   TIME STEP LENGTH 3.79607E+05  6326.8      105.45      4.3936     1.20290E-02
 STRESS PERIOD TIME 7.30968E+06 1.21828E+05  2030.5      84.603     0.23163    
         TOTAL TIME 7.30968E+06 1.21828E+05  2030.5      84.603     0.23163    


end timestep


start timestep kper="1" kstp="52" mode="normal"



  VOLUME BUDGET FOR ENTIRE MODEL AT END OF TIME STEP   52, STRESS PERIOD   1
  ---------------------------------------------------------------------------------------------------

     CUMULATIVE VOLUME      L**3       RATES FOR THIS TIME STEP      L**3/T          PACKAGE NAME    
     ------------------                 ------------------------                     ----------------

           IN:                                      IN:
           ---                                      ---
              STO-SS =           0.0000                STO-SS =           0.0000     STORAGE                          
      CSUB-CGELASTIC =           0.0000        CSUB-CGELASTIC =           0.0000     CSUB                             
        CSUB-ELASTIC =           0.0000          CSUB-ELASTIC =           0.0000     CSUB                             
      CSUB-INELASTIC =           0.6392        CSUB-INELASTIC =       4.1251E-03     CSUB                             
      CSUB-WATERCOMP =           0.0000        CSUB-WATERCOMP =           0.0000     CSUB                             
                 CHD =           0.0000                   CHD =           0.0000     CHD_0                            

            TOTAL IN =           0.6392              TOTAL IN =       4.1251E-03

          OUT:                                     OUT:
          ----                                     ----
              STO-SS =           0.0000                STO-SS =           0.0000     STORAGE                          
      CSUB-CGELASTIC =           0.0000        CSUB-CGELASTIC =           0.0000     CSUB                             
        CSUB-ELASTIC =           0.0000          CSUB-ELASTIC =           0.0000     CSUB                             
      CSUB-INELASTIC =           0.0000        CSUB-INELASTIC =           0.0000     CSUB                             
      CSUB-WATERCOMP =           0.0000        CSUB-WATERCOMP =           0.0000     CSUB                             
                 CHD =           0.6392                   CHD =       4.1251E-03     CHD_0                            

           TOTAL OUT =           0.6392             TOTAL OUT =       4.1251E-03

            IN - OUT =       1.6188E-08              IN - OUT =       3.5269E-10

 PERCENT DISCREPANCY =           0.00     PERCENT DISCREPANCY =           0.00




         TIME SUMMARY AT END OF TIME STEP   52 IN STRESS PERIOD    1
                    SECONDS     MINUTES      HOURS       DAYS        YEARS
                    -----------------------------------------------------------
   TIME STEP LENGTH 3.98587E+05  6643.1      110.72      4.6133     1.26305E-02
 STRESS PERIOD TIME 7.70827E+06 1.28471E+05  2141.2      89.216     0.24426    
         TOTAL TIME 7.70827E+06 1.28471E+05  2141.2      89.216     0.24426    


end timestep


start timestep kper="1" kstp="53" mode="normal"



  VOLUME BUDGET FOR ENTIRE MODEL AT END OF TIME STEP   53, STRESS PERIOD   1
  ---------------------------------------------------------------------------------------------------

     CUMULATIVE VOLUME      L**3       RATES FOR THIS TIME STEP      L**3/T          PACKAGE NAME    
     ------------------                 ------------------------                     ----------------

           IN:                                      IN:
           ---                                      ---
              STO-SS =           0.0000                STO-SS =           0.0000     STORAGE                          
      CSUB-CGELASTIC =           0.0000        CSUB-CGELASTIC =           0.0000     CSUB                             
        CSUB-ELASTIC =           0.0000          CSUB-ELASTIC =           0.0000     CSUB                             
      CSUB-INELASTIC =           0.6585        CSUB-INELASTIC =       3.9990E-03     CSUB                             
      CSUB-WATERCOMP =           0.0000        CSUB-WATERCOMP =           0.0000     CSUB                             
                 CHD =           0.0000                   CHD =           0.0000     CHD_0                            

            TOTAL IN =           0.6585              TOTAL IN =       3.9990E-03

          OUT:                                     OUT:
          ----                                     ----
              STO-SS =           0.0000                STO-SS =           0.0000     STORAGE                          
      CSUB-CGELASTIC =           0.0000        CSUB-CGELASTIC =           0.0000     CSUB                             
        CSUB-ELASTIC =           0.0000          CSUB-ELASTIC =           0.0000     CSUB                             
      CSUB-INELASTIC =           0.0000        CSUB-INELASTIC =           0.0000     CSUB                             
      CSUB-WATERCOMP =           0.0000        CSUB-WATERCOMP =           0.0000     CSUB                             
                 CHD =           0.6585                   CHD =       3.9990E-03     CHD_0                            

           TOTAL OUT =           0.6585             TOTAL OUT =       3.9990E-03

            IN - OUT =       1.8001E-08              IN - OUT =       3.7431E-10

 PERCENT DISCREPANCY =           0.00     PERCENT DISCREPANCY =           0.00




         TIME SUMMARY AT END OF TIME STEP   53 IN STRESS PERIOD    1
                    SECONDS     MINUTES      HOURS       DAYS        YEARS
                    -----------------------------------------------------------
   TIME STEP LENGTH 4.18517E+05  6975.3      116.25      4.8439     1.32620E-02
 STRESS PERIOD TIME 8.12678E+06 1.35446E+05  2257.4      94.060     0.25752    
         TOTAL TIME 8.12678E+06 1.35446E+05  2257.4      94.060     0.25752    


end timestep


start timestep kper="1" kstp="54" mode="normal"



  VOLUME BUDGET FOR ENTIRE MODEL AT END OF TIME STEP   54, STRESS PERIOD   1
  ---------------------------------------------------------------------------------------------------

     CUMULATIVE VOLUME      L**3       RATES FOR THIS TIME STEP      L**3/T          PACKAGE NAME    
     ------------------                 ------------------------                     ----------------

           IN:                                      IN:
           ---                                      ---
              STO-SS =           0.0000                STO-SS =           0.0000     STORAGE                          
      CSUB-CGELASTIC =           0.0000        CSUB-CGELASTIC =           0.0000     CSUB                             
        CSUB-ELASTIC =           0.0000          CSUB-ELASTIC =           0.0000     CSUB                             
      CSUB-INELASTIC =           0.6783        CSUB-INELASTIC =       3.8781E-03     CSUB                             
      CSUB-WATERCOMP =           0.0000        CSUB-WATERCOMP =           0.0000     CSUB                             
                 CHD =           0.0000                   CHD =           0.0000     CHD_0                            

            TOTAL IN =           0.6783              TOTAL IN =       3.8781E-03

          OUT:                                     OUT:
          ----                                     ----
              STO-SS =           0.0000                STO-SS =           0.0000     STORAGE                          
      CSUB-CGELASTIC =           0.0000        CSUB-CGELASTIC =           0.0000     CSUB                             
        CSUB-ELASTIC =           0.0000          CSUB-ELASTIC =           0.0000     CSUB                             
      CSUB-INELASTIC =           0.0000        CSUB-INELASTIC =           0.0000     CSUB                             
      CSUB-WATERCOMP =           0.0000        CSUB-WATERCOMP =           0.0000     CSUB                             
                 CHD =           0.6783                   CHD =       3.8781E-03     CHD_0                            

           TOTAL OUT =           0.6783             TOTAL OUT =       3.8781E-03

            IN - OUT =       2.0019E-08              IN - OUT =       3.9666E-10

 PERCENT DISCREPANCY =           0.00     PERCENT DISCREPANCY =           0.00




         TIME SUMMARY AT END OF TIME STEP   54 IN STRESS PERIOD    1
                    SECONDS     MINUTES      HOURS       DAYS        YEARS
                    -----------------------------------------------------------
   TIME STEP LENGTH 4.39442E+05  7324.0      122.07      5.0861     1.39251E-02
 STRESS PERIOD TIME 8.56623E+06 1.42770E+05  2379.5      99.146     0.27145    
         TOTAL TIME 8.56623E+06 1.42770E+05  2379.5      99.146     0.27145    


end timestep


start timestep kper="1" kstp="55" mode="normal"



  VOLUME BUDGET FOR ENTIRE MODEL AT END OF TIME STEP   55, STRESS PERIOD   1
  ---------------------------------------------------------------------------------------------------

     CUMULATIVE VOLUME      L**3       RATES FOR THIS TIME STEP      L**3/T          PACKAGE NAME    
     ------------------                 ------------------------                     ----------------

           IN:                                      IN:
           ---                                      ---
              STO-SS =           0.0000                STO-SS =           0.0000     STORAGE                          
      CSUB-CGELASTIC =           0.0000        CSUB-CGELASTIC =           0.0000     CSUB                             
        CSUB-ELASTIC =           0.0000          CSUB-ELASTIC =           0.0000     CSUB                             
      CSUB-INELASTIC =           0.6983        CSUB-INELASTIC =       3.7623E-03     CSUB                             
      CSUB-WATERCOMP =           0.0000        CSUB-WATERCOMP =           0.0000     CSUB                             
                 CHD =           0.0000                   CHD =           0.0000     CHD_0                            

            TOTAL IN =           0.6983              TOTAL IN =       3.7623E-03

          OUT:                                     OUT:
          ----                                     ----
              STO-SS =           0.0000                STO-SS =           0.0000     STORAGE                          
      CSUB-CGELASTIC =           0.0000        CSUB-CGELASTIC =           0.0000     CSUB                             
        CSUB-ELASTIC =           0.0000          CSUB-ELASTIC =           0.0000     CSUB                             
      CSUB-INELASTIC =           0.0000        CSUB-INELASTIC =           0.0000     CSUB                             
      CSUB-WATERCOMP =           0.0000        CSUB-WATERCOMP =           0.0000     CSUB                             
                 CHD =           0.6983                   CHD =       3.7623E-03     CHD_0                            

           TOTAL OUT =           0.6983             TOTAL OUT =       3.7623E-03

            IN - OUT =       2.2260E-08              IN - OUT =       4.1966E-10

 PERCENT DISCREPANCY =           0.00     PERCENT DISCREPANCY =           0.00




         TIME SUMMARY AT END OF TIME STEP   55 IN STRESS PERIOD    1
                    SECONDS     MINUTES      HOURS       DAYS        YEARS
                    -----------------------------------------------------------
   TIME STEP LENGTH 4.61414E+05  7690.2      128.17      5.3404     1.46213E-02
 STRESS PERIOD TIME 9.02764E+06 1.50461E+05  2507.7      104.49     0.28607    
         TOTAL TIME 9.02764E+06 1.50461E+05  2507.7      104.49     0.28607    


end timestep


start timestep kper="1" kstp="56" mode="normal"



  VOLUME BUDGET FOR ENTIRE MODEL AT END OF TIME STEP   56, STRESS PERIOD   1
  ---------------------------------------------------------------------------------------------------

     CUMULATIVE VOLUME      L**3       RATES FOR THIS TIME STEP      L**3/T          PACKAGE NAME    
     ------------------                 ------------------------                     ----------------

           IN:                                      IN:
           ---                                      ---
              STO-SS =           0.0000                STO-SS =           0.0000     STORAGE                          
      CSUB-CGELASTIC =           0.0000        CSUB-CGELASTIC =           0.0000     CSUB                             
        CSUB-ELASTIC =           0.0000          CSUB-ELASTIC =           0.0000     CSUB                             
      CSUB-INELASTIC =           0.7188        CSUB-INELASTIC =       3.6513E-03     CSUB                             
      CSUB-WATERCOMP =           0.0000        CSUB-WATERCOMP =           0.0000     CSUB                             
                 CHD =           0.0000                   CHD =           0.0000     CHD_0                            

            TOTAL IN =           0.7188              TOTAL IN =       3.6513E-03

          OUT:                                     OUT:
          ----                                     ----
              STO-SS =           0.0000                STO-SS =           0.0000     STORAGE                          
      CSUB-CGELASTIC =           0.0000        CSUB-CGELASTIC =           0.0000     CSUB                             
        CSUB-ELASTIC =           0.0000          CSUB-ELASTIC =           0.0000     CSUB                             
      CSUB-INELASTIC =           0.0000        CSUB-INELASTIC =           0.0000     CSUB                             
      CSUB-WATERCOMP =           0.0000        CSUB-WATERCOMP =           0.0000     CSUB                             
                 CHD =           0.7188                   CHD =       3.6513E-03     CHD_0                            

           TOTAL OUT =           0.7188             TOTAL OUT =       3.6513E-03

            IN - OUT =       2.4746E-08              IN - OUT =       4.4325E-10

 PERCENT DISCREPANCY =           0.00     PERCENT DISCREPANCY =           0.00




         TIME SUMMARY AT END OF TIME STEP   56 IN STRESS PERIOD    1
                    SECONDS     MINUTES      HOURS       DAYS        YEARS
                    -----------------------------------------------------------
   TIME STEP LENGTH 4.84485E+05  8074.8      134.58      5.6075     1.53524E-02
 STRESS PERIOD TIME 9.51213E+06 1.58535E+05  2642.3      110.09     0.30142    
         TOTAL TIME 9.51213E+06 1.58535E+05  2642.3      110.09     0.30142    


end timestep


start timestep kper="1" kstp="57" mode="normal"



  VOLUME BUDGET FOR ENTIRE MODEL AT END OF TIME STEP   57, STRESS PERIOD   1
  ---------------------------------------------------------------------------------------------------

     CUMULATIVE VOLUME      L**3       RATES FOR THIS TIME STEP      L**3/T          PACKAGE NAME    
     ------------------                 ------------------------                     ----------------

           IN:                                      IN:
           ---                                      ---
              STO-SS =           0.0000                STO-SS =           0.0000     STORAGE                          
      CSUB-CGELASTIC =           0.0000        CSUB-CGELASTIC =           0.0000     CSUB                             
        CSUB-ELASTIC =           0.0000          CSUB-ELASTIC =           0.0000     CSUB                             
      CSUB-INELASTIC =           0.7397        CSUB-INELASTIC =       3.5447E-03     CSUB                             
      CSUB-WATERCOMP =           0.0000        CSUB-WATERCOMP =           0.0000     CSUB                             
                 CHD =           0.0000                   CHD =           0.0000     CHD_0                            

            TOTAL IN =           0.7397              TOTAL IN =       3.5447E-03

          OUT:                                     OUT:
          ----                                     ----
              STO-SS =           0.0000                STO-SS =           0.0000     STORAGE                          
      CSUB-CGELASTIC =           0.0000        CSUB-CGELASTIC =           0.0000     CSUB                             
        CSUB-ELASTIC =           0.0000          CSUB-ELASTIC =           0.0000     CSUB                             
      CSUB-INELASTIC =           0.0000        CSUB-INELASTIC =           0.0000     CSUB                             
      CSUB-WATERCOMP =           0.0000        CSUB-WATERCOMP =           0.0000     CSUB                             
                 CHD =           0.7397                   CHD =       3.5447E-03     CHD_0                            

           TOTAL OUT =           0.7397             TOTAL OUT =       3.5447E-03

            IN - OUT =       2.7497E-08              IN - OUT =       4.6736E-10

 PERCENT DISCREPANCY =           0.00     PERCENT DISCREPANCY =           0.00




         TIME SUMMARY AT END OF TIME STEP   57 IN STRESS PERIOD    1
                    SECONDS     MINUTES      HOURS       DAYS        YEARS
                    -----------------------------------------------------------
   TIME STEP LENGTH 5.08709E+05  8478.5      141.31      5.8878     1.61200E-02
 STRESS PERIOD TIME 1.00208E+07 1.67014E+05  2783.6      115.98     0.31754    
         TOTAL TIME 1.00208E+07 1.67014E+05  2783.6      115.98     0.31754    


end timestep


start timestep kper="1" kstp="58" mode="normal"



  VOLUME BUDGET FOR ENTIRE MODEL AT END OF TIME STEP   58, STRESS PERIOD   1
  ---------------------------------------------------------------------------------------------------

     CUMULATIVE VOLUME      L**3       RATES FOR THIS TIME STEP      L**3/T          PACKAGE NAME    
     ------------------                 ------------------------                     ----------------

           IN:                                      IN:
           ---                                      ---
              STO-SS =           0.0000                STO-SS =           0.0000     STORAGE                          
      CSUB-CGELASTIC =           0.0000        CSUB-CGELASTIC =           0.0000     CSUB                             
        CSUB-ELASTIC =           0.0000          CSUB-ELASTIC =           0.0000     CSUB                             
      CSUB-INELASTIC =           0.7610        CSUB-INELASTIC =       3.4424E-03     CSUB                             
      CSUB-WATERCOMP =           0.0000        CSUB-WATERCOMP =           0.0000     CSUB                             
                 CHD =           0.0000                   CHD =           0.0000     CHD_0                            

            TOTAL IN =           0.7610              TOTAL IN =       3.4424E-03

          OUT:                                     OUT:
          ----                                     ----
              STO-SS =           0.0000                STO-SS =           0.0000     STORAGE                          
      CSUB-CGELASTIC =           0.0000        CSUB-CGELASTIC =           0.0000     CSUB                             
        CSUB-ELASTIC =           0.0000          CSUB-ELASTIC =           0.0000     CSUB                             
      CSUB-INELASTIC =           0.0000        CSUB-INELASTIC =           0.0000     CSUB                             
      CSUB-WATERCOMP =           0.0000        CSUB-WATERCOMP =           0.0000     CSUB                             
                 CHD =           0.7610                   CHD =       3.4424E-03     CHD_0                            

           TOTAL OUT =           0.7610             TOTAL OUT =       3.4424E-03

            IN - OUT =       3.0539E-08              IN - OUT =       4.9193E-10

 PERCENT DISCREPANCY =           0.00     PERCENT DISCREPANCY =           0.00




         TIME SUMMARY AT END OF TIME STEP   58 IN STRESS PERIOD    1
                    SECONDS     MINUTES      HOURS       DAYS        YEARS
                    -----------------------------------------------------------
   TIME STEP LENGTH 5.34145E+05  8902.4      148.37      6.1822     1.69260E-02
 STRESS PERIOD TIME 1.05550E+07 1.75916E+05  2931.9      122.16     0.33447    
         TOTAL TIME 1.05550E+07 1.75916E+05  2931.9      122.16     0.33447    


end timestep


start timestep kper="1" kstp="59" mode="normal"



  VOLUME BUDGET FOR ENTIRE MODEL AT END OF TIME STEP   59, STRESS PERIOD   1
  ---------------------------------------------------------------------------------------------------

     CUMULATIVE VOLUME      L**3       RATES FOR THIS TIME STEP      L**3/T          PACKAGE NAME    
     ------------------                 ------------------------                     ----------------

           IN:                                      IN:
           ---                                      ---
              STO-SS =           0.0000                STO-SS =           0.0000     STORAGE                          
      CSUB-CGELASTIC =           0.0000        CSUB-CGELASTIC =           0.0000     CSUB                             
        CSUB-ELASTIC =           0.0000          CSUB-ELASTIC =           0.0000     CSUB                             
      CSUB-INELASTIC =           0.7827        CSUB-INELASTIC =       3.3442E-03     CSUB                             
      CSUB-WATERCOMP =           0.0000        CSUB-WATERCOMP =           0.0000     CSUB                             
                 CHD =           0.0000                   CHD =           0.0000     CHD_0                            

            TOTAL IN =           0.7827              TOTAL IN =       3.3442E-03

          OUT:                                     OUT:
          ----                                     ----
              STO-SS =           0.0000                STO-SS =           0.0000     STORAGE                          
      CSUB-CGELASTIC =           0.0000        CSUB-CGELASTIC =           0.0000     CSUB                             
        CSUB-ELASTIC =           0.0000          CSUB-ELASTIC =           0.0000     CSUB                             
      CSUB-INELASTIC =           0.0000        CSUB-INELASTIC =           0.0000     CSUB                             
      CSUB-WATERCOMP =           0.0000        CSUB-WATERCOMP =           0.0000     CSUB                             
                 CHD =           0.7827                   CHD =       3.3442E-03     CHD_0                            

           TOTAL OUT =           0.7827             TOTAL OUT =       3.3442E-03

            IN - OUT =       3.3894E-08              IN - OUT =       5.1690E-10

 PERCENT DISCREPANCY =           0.00     PERCENT DISCREPANCY =           0.00




         TIME SUMMARY AT END OF TIME STEP   59 IN STRESS PERIOD    1
                    SECONDS     MINUTES      HOURS       DAYS        YEARS
                    -----------------------------------------------------------
   TIME STEP LENGTH 5.60852E+05  9347.5      155.79      6.4913     1.77723E-02
 STRESS PERIOD TIME 1.11158E+07 1.85264E+05  3087.7      128.66     0.35224    
         TOTAL TIME 1.11158E+07 1.85264E+05  3087.7      128.66     0.35224    


end timestep


start timestep kper="1" kstp="60" mode="normal"



  VOLUME BUDGET FOR ENTIRE MODEL AT END OF TIME STEP   60, STRESS PERIOD   1
  ---------------------------------------------------------------------------------------------------

     CUMULATIVE VOLUME      L**3       RATES FOR THIS TIME STEP      L**3/T          PACKAGE NAME    
     ------------------                 ------------------------                     ----------------

           IN:                                      IN:
           ---                                      ---
              STO-SS =           0.0000                STO-SS =           0.0000     STORAGE                          
      CSUB-CGELASTIC =           0.0000        CSUB-CGELASTIC =           0.0000     CSUB                             
        CSUB-ELASTIC =           0.0000          CSUB-ELASTIC =           0.0000     CSUB                             
      CSUB-INELASTIC =           0.8048        CSUB-INELASTIC =       3.2497E-03     CSUB                             
      CSUB-WATERCOMP =           0.0000        CSUB-WATERCOMP =           0.0000     CSUB                             
                 CHD =           0.0000                   CHD =           0.0000     CHD_0                            

            TOTAL IN =           0.8048              TOTAL IN =       3.2497E-03

          OUT:                                     OUT:
          ----                                     ----
              STO-SS =           0.0000                STO-SS =           0.0000     STORAGE                          
      CSUB-CGELASTIC =           0.0000        CSUB-CGELASTIC =           0.0000     CSUB                             
        CSUB-ELASTIC =           0.0000          CSUB-ELASTIC =           0.0000     CSUB                             
      CSUB-INELASTIC =           0.0000        CSUB-INELASTIC =           0.0000     CSUB                             
      CSUB-WATERCOMP =           0.0000        CSUB-WATERCOMP =           0.0000     CSUB                             
                 CHD =           0.8048                   CHD =       3.2497E-03     CHD_0                            

           TOTAL OUT =           0.8048             TOTAL OUT =       3.2497E-03

            IN - OUT =       3.7590E-08              IN - OUT =       5.4222E-10

 PERCENT DISCREPANCY =           0.00     PERCENT DISCREPANCY =           0.00




         TIME SUMMARY AT END OF TIME STEP   60 IN STRESS PERIOD    1
                    SECONDS     MINUTES      HOURS       DAYS        YEARS
                    -----------------------------------------------------------
   TIME STEP LENGTH 5.88895E+05  9814.9      163.58      6.8159     1.86609E-02
 STRESS PERIOD TIME 1.17047E+07 1.95079E+05  3251.3      135.47     0.37090    
         TOTAL TIME 1.17047E+07 1.95079E+05  3251.3      135.47     0.37090    


end timestep


start timestep kper="1" kstp="61" mode="normal"



  VOLUME BUDGET FOR ENTIRE MODEL AT END OF TIME STEP   61, STRESS PERIOD   1
  ---------------------------------------------------------------------------------------------------

     CUMULATIVE VOLUME      L**3       RATES FOR THIS TIME STEP      L**3/T          PACKAGE NAME    
     ------------------                 ------------------------                     ----------------

           IN:                                      IN:
           ---                                      ---
              STO-SS =           0.0000                STO-SS =           0.0000     STORAGE                          
      CSUB-CGELASTIC =           0.0000        CSUB-CGELASTIC =           0.0000     CSUB                             
        CSUB-ELASTIC =           0.0000          CSUB-ELASTIC =           0.0000     CSUB                             
      CSUB-INELASTIC =           0.8274        CSUB-INELASTIC =       3.1588E-03     CSUB                             
      CSUB-WATERCOMP =           0.0000        CSUB-WATERCOMP =           0.0000     CSUB                             
                 CHD =           0.0000                   CHD =           0.0000     CHD_0                            

            TOTAL IN =           0.8274              TOTAL IN =       3.1588E-03

          OUT:                                     OUT:
          ----                                     ----
              STO-SS =           0.0000                STO-SS =           0.0000     STORAGE                          
      CSUB-CGELASTIC =           0.0000        CSUB-CGELASTIC =           0.0000     CSUB                             
        CSUB-ELASTIC =           0.0000          CSUB-ELASTIC =           0.0000     CSUB                             
      CSUB-INELASTIC =           0.0000        CSUB-INELASTIC =           0.0000     CSUB                             
      CSUB-WATERCOMP =           0.0000        CSUB-WATERCOMP =           0.0000     CSUB                             
                 CHD =           0.8274                   CHD =       3.1588E-03     CHD_0                            

           TOTAL OUT =           0.8274             TOTAL OUT =       3.1588E-03

            IN - OUT =       4.1654E-08              IN - OUT =       5.6785E-10

 PERCENT DISCREPANCY =           0.00     PERCENT DISCREPANCY =           0.00




         TIME SUMMARY AT END OF TIME STEP   61 IN STRESS PERIOD    1
                    SECONDS     MINUTES      HOURS       DAYS        YEARS
                    -----------------------------------------------------------
   TIME STEP LENGTH 6.18340E+05  10306.      171.76      7.1567     1.95940E-02
 STRESS PERIOD TIME 1.23231E+07 2.05384E+05  3423.1      142.63     0.39049    
         TOTAL TIME 1.23231E+07 2.05384E+05  3423.1      142.63     0.39049    


end timestep


start timestep kper="1" kstp="62" mode="normal"



  VOLUME BUDGET FOR ENTIRE MODEL AT END OF TIME STEP   62, STRESS PERIOD   1
  ---------------------------------------------------------------------------------------------------

     CUMULATIVE VOLUME      L**3       RATES FOR THIS TIME STEP      L**3/T          PACKAGE NAME    
     ------------------                 ------------------------                     ----------------

           IN:                                      IN:
           ---                                      ---
              STO-SS =           0.0000                STO-SS =           0.0000     STORAGE                          
      CSUB-CGELASTIC =           0.0000        CSUB-CGELASTIC =           0.0000     CSUB                             
        CSUB-ELASTIC =           0.0000          CSUB-ELASTIC =           0.0000     CSUB                             
      CSUB-INELASTIC =           0.8505        CSUB-INELASTIC =       3.0713E-03     CSUB                             
      CSUB-WATERCOMP =           0.0000        CSUB-WATERCOMP =           0.0000     CSUB                             
                 CHD =           0.0000                   CHD =           0.0000     CHD_0                            

            TOTAL IN =           0.8505              TOTAL IN =       3.0713E-03

          OUT:                                     OUT:
          ----                                     ----
              STO-SS =           0.0000                STO-SS =           0.0000     STORAGE                          
      CSUB-CGELASTIC =           0.0000        CSUB-CGELASTIC =           0.0000     CSUB                             
        CSUB-ELASTIC =           0.0000          CSUB-ELASTIC =           0.0000     CSUB                             
      CSUB-INELASTIC =           0.0000        CSUB-INELASTIC =           0.0000     CSUB                             
      CSUB-WATERCOMP =           0.0000        CSUB-WATERCOMP =           0.0000     CSUB                             
                 CHD =           0.8505                   CHD =       3.0713E-03     CHD_0                            

           TOTAL OUT =           0.8505             TOTAL OUT =       3.0713E-03

            IN - OUT =       4.6115E-08              IN - OUT =       5.9376E-10

 PERCENT DISCREPANCY =           0.00     PERCENT DISCREPANCY =           0.00




         TIME SUMMARY AT END OF TIME STEP   62 IN STRESS PERIOD    1
                    SECONDS     MINUTES      HOURS       DAYS        YEARS
                    -----------------------------------------------------------
   TIME STEP LENGTH 6.49256E+05  10821.      180.35      7.5145     2.05737E-02
 STRESS PERIOD TIME 1.29723E+07 2.16205E+05  3603.4      150.14     0.41107    
         TOTAL TIME 1.29723E+07 2.16205E+05  3603.4      150.14     0.41107    


end timestep


start timestep kper="1" kstp="63" mode="normal"



  VOLUME BUDGET FOR ENTIRE MODEL AT END OF TIME STEP   63, STRESS PERIOD   1
  ---------------------------------------------------------------------------------------------------

     CUMULATIVE VOLUME      L**3       RATES FOR THIS TIME STEP      L**3/T          PACKAGE NAME    
     ------------------                 ------------------------                     ----------------

           IN:                                      IN:
           ---                                      ---
              STO-SS =           0.0000                STO-SS =           0.0000     STORAGE                          
      CSUB-CGELASTIC =           0.0000        CSUB-CGELASTIC =           0.0000     CSUB                             
        CSUB-ELASTIC =           0.0000          CSUB-ELASTIC =           0.0000     CSUB                             
      CSUB-INELASTIC =           0.8741        CSUB-INELASTIC =       2.9869E-03     CSUB                             
      CSUB-WATERCOMP =           0.0000        CSUB-WATERCOMP =           0.0000     CSUB                             
                 CHD =           0.0000                   CHD =           0.0000     CHD_0                            

            TOTAL IN =           0.8741              TOTAL IN =       2.9869E-03

          OUT:                                     OUT:
          ----                                     ----
              STO-SS =           0.0000                STO-SS =           0.0000     STORAGE                          
      CSUB-CGELASTIC =           0.0000        CSUB-CGELASTIC =           0.0000     CSUB                             
        CSUB-ELASTIC =           0.0000          CSUB-ELASTIC =           0.0000     CSUB                             
      CSUB-INELASTIC =           0.0000        CSUB-INELASTIC =           0.0000     CSUB                             
      CSUB-WATERCOMP =           0.0000        CSUB-WATERCOMP =           0.0000     CSUB                             
                 CHD =           0.8741                   CHD =       2.9869E-03     CHD_0                            

           TOTAL OUT =           0.8741             TOTAL OUT =       2.9869E-03

            IN - OUT =       5.1007E-08              IN - OUT =       6.1993E-10

 PERCENT DISCREPANCY =           0.00     PERCENT DISCREPANCY =           0.00




         TIME SUMMARY AT END OF TIME STEP   63 IN STRESS PERIOD    1
                    SECONDS     MINUTES      HOURS       DAYS        YEARS
                    -----------------------------------------------------------
   TIME STEP LENGTH 6.81719E+05  11362.      189.37      7.8903     2.16024E-02
 STRESS PERIOD TIME 1.36540E+07 2.27567E+05  3792.8      158.03     0.43267    
         TOTAL TIME 1.36540E+07 2.27567E+05  3792.8      158.03     0.43267    


end timestep


start timestep kper="1" kstp="64" mode="normal"



  VOLUME BUDGET FOR ENTIRE MODEL AT END OF TIME STEP   64, STRESS PERIOD   1
  ---------------------------------------------------------------------------------------------------

     CUMULATIVE VOLUME      L**3       RATES FOR THIS TIME STEP      L**3/T          PACKAGE NAME    
     ------------------                 ------------------------                     ----------------

           IN:                                      IN:
           ---                                      ---
              STO-SS =           0.0000                STO-SS =           0.0000     STORAGE                          
      CSUB-CGELASTIC =           0.0000        CSUB-CGELASTIC =           0.0000     CSUB                             
        CSUB-ELASTIC =           0.0000          CSUB-ELASTIC =           0.0000     CSUB                             
      CSUB-INELASTIC =           0.8982        CSUB-INELASTIC =       2.9055E-03     CSUB                             
      CSUB-WATERCOMP =           0.0000        CSUB-WATERCOMP =           0.0000     CSUB                             
                 CHD =           0.0000                   CHD =           0.0000     CHD_0                            

            TOTAL IN =           0.8982              TOTAL IN =       2.9055E-03

          OUT:                                     OUT:
          ----                                     ----
              STO-SS =           0.0000                STO-SS =           0.0000     STORAGE                          
      CSUB-CGELASTIC =           0.0000        CSUB-CGELASTIC =           0.0000     CSUB                             
        CSUB-ELASTIC =           0.0000          CSUB-ELASTIC =           0.0000     CSUB                             
      CSUB-INELASTIC =           0.0000        CSUB-INELASTIC =           0.0000     CSUB                             
      CSUB-WATERCOMP =           0.0000        CSUB-WATERCOMP =           0.0000     CSUB                             
                 CHD =           0.8982                   CHD =       2.9055E-03     CHD_0                            

           TOTAL OUT =           0.8982             TOTAL OUT =       2.9055E-03

            IN - OUT =       5.6361E-08              IN - OUT =       6.4633E-10

 PERCENT DISCREPANCY =           0.00     PERCENT DISCREPANCY =           0.00




         TIME SUMMARY AT END OF TIME STEP   64 IN STRESS PERIOD    1
                    SECONDS     MINUTES      HOURS       DAYS        YEARS
                    -----------------------------------------------------------
   TIME STEP LENGTH 7.15805E+05  11930.      198.83      8.2848     2.26825E-02
 STRESS PERIOD TIME 1.43698E+07 2.39497E+05  3991.6      166.32     0.45535    
         TOTAL TIME 1.43698E+07 2.39497E+05  3991.6      166.32     0.45535    


end timestep


start timestep kper="1" kstp="65" mode="normal"



  VOLUME BUDGET FOR ENTIRE MODEL AT END OF TIME STEP   65, STRESS PERIOD   1
  ---------------------------------------------------------------------------------------------------

     CUMULATIVE VOLUME      L**3       RATES FOR THIS TIME STEP      L**3/T          PACKAGE NAME    
     ------------------                 ------------------------                     ----------------

           IN:                                      IN:
           ---                                      ---
              STO-SS =           0.0000                STO-SS =           0.0000     STORAGE                          
      CSUB-CGELASTIC =           0.0000        CSUB-CGELASTIC =           0.0000     CSUB                             
        CSUB-ELASTIC =           0.0000          CSUB-ELASTIC =           0.0000     CSUB                             
      CSUB-INELASTIC =           0.9227        CSUB-INELASTIC =       2.8269E-03     CSUB                             
      CSUB-WATERCOMP =           0.0000        CSUB-WATERCOMP =           0.0000     CSUB                             
                 CHD =           0.0000                   CHD =           0.0000     CHD_0                            

            TOTAL IN =           0.9227              TOTAL IN =       2.8269E-03

          OUT:                                     OUT:
          ----                                     ----
              STO-SS =           0.0000                STO-SS =           0.0000     STORAGE                          
      CSUB-CGELASTIC =           0.0000        CSUB-CGELASTIC =           0.0000     CSUB                             
        CSUB-ELASTIC =           0.0000          CSUB-ELASTIC =           0.0000     CSUB                             
      CSUB-INELASTIC =           0.0000        CSUB-INELASTIC =           0.0000     CSUB                             
      CSUB-WATERCOMP =           0.0000        CSUB-WATERCOMP =           0.0000     CSUB                             
                 CHD =           0.9227                   CHD =       2.8269E-03     CHD_0                            

           TOTAL OUT =           0.9227             TOTAL OUT =       2.8269E-03

            IN - OUT =       6.2216E-08              IN - OUT =       6.7296E-10

 PERCENT DISCREPANCY =           0.00     PERCENT DISCREPANCY =           0.00




         TIME SUMMARY AT END OF TIME STEP   65 IN STRESS PERIOD    1
                    SECONDS     MINUTES      HOURS       DAYS        YEARS
                    -----------------------------------------------------------
   TIME STEP LENGTH 7.51596E+05  12527.      208.78      8.6990     2.38166E-02
 STRESS PERIOD TIME 1.51214E+07 2.52024E+05  4200.4      175.02     0.47917    
         TOTAL TIME 1.51214E+07 2.52024E+05  4200.4      175.02     0.47917    


end timestep


start timestep kper="1" kstp="66" mode="normal"



  VOLUME BUDGET FOR ENTIRE MODEL AT END OF TIME STEP   66, STRESS PERIOD   1
  ---------------------------------------------------------------------------------------------------

     CUMULATIVE VOLUME      L**3       RATES FOR THIS TIME STEP      L**3/T          PACKAGE NAME    
     ------------------                 ------------------------                     ----------------

           IN:                                      IN:
           ---                                      ---
              STO-SS =           0.0000                STO-SS =           0.0000     STORAGE                          
      CSUB-CGELASTIC =           0.0000        CSUB-CGELASTIC =           0.0000     CSUB                             
        CSUB-ELASTIC =           0.0000          CSUB-ELASTIC =           0.0000     CSUB                             
      CSUB-INELASTIC =           0.9479        CSUB-INELASTIC =       2.7509E-03     CSUB                             
      CSUB-WATERCOMP =           0.0000        CSUB-WATERCOMP =           0.0000     CSUB                             
                 CHD =           0.0000                   CHD =           0.0000     CHD_0                            

            TOTAL IN =           0.9479              TOTAL IN =       2.7509E-03

          OUT:                                     OUT:
          ----                                     ----
              STO-SS =           0.0000                STO-SS =           0.0000     STORAGE                          
      CSUB-CGELASTIC =           0.0000        CSUB-CGELASTIC =           0.0000     CSUB                             
        CSUB-ELASTIC =           0.0000          CSUB-ELASTIC =           0.0000     CSUB                             
      CSUB-INELASTIC =           0.0000        CSUB-INELASTIC =           0.0000     CSUB                             
      CSUB-WATERCOMP =           0.0000        CSUB-WATERCOMP =           0.0000     CSUB                             
                 CHD =           0.9479                   CHD =       2.7509E-03     CHD_0                            

           TOTAL OUT =           0.9479             TOTAL OUT =       2.7509E-03

            IN - OUT =       6.8608E-08              IN - OUT =       6.9981E-10

 PERCENT DISCREPANCY =           0.00     PERCENT DISCREPANCY =           0.00




         TIME SUMMARY AT END OF TIME STEP   66 IN STRESS PERIOD    1
                    SECONDS     MINUTES      HOURS       DAYS        YEARS
                    -----------------------------------------------------------
   TIME STEP LENGTH 7.89175E+05  13153.      219.22      9.1340     2.50075E-02
 STRESS PERIOD TIME 1.59106E+07 2.65177E+05  4419.6      184.15     0.50418    
         TOTAL TIME 1.59106E+07 2.65177E+05  4419.6      184.15     0.50418    


end timestep


start timestep kper="1" kstp="67" mode="normal"



  VOLUME BUDGET FOR ENTIRE MODEL AT END OF TIME STEP   67, STRESS PERIOD   1
  ---------------------------------------------------------------------------------------------------

     CUMULATIVE VOLUME      L**3       RATES FOR THIS TIME STEP      L**3/T          PACKAGE NAME    
     ------------------                 ------------------------                     ----------------

           IN:                                      IN:
           ---                                      ---
              STO-SS =           0.0000                STO-SS =           0.0000     STORAGE                          
      CSUB-CGELASTIC =           0.0000        CSUB-CGELASTIC =           0.0000     CSUB                             
        CSUB-ELASTIC =           0.0000          CSUB-ELASTIC =           0.0000     CSUB                             
      CSUB-INELASTIC =           0.9735        CSUB-INELASTIC =       2.6775E-03     CSUB                             
      CSUB-WATERCOMP =           0.0000        CSUB-WATERCOMP =           0.0000     CSUB                             
                 CHD =           0.0000                   CHD =           0.0000     CHD_0                            

            TOTAL IN =           0.9735              TOTAL IN =       2.6775E-03

          OUT:                                     OUT:
          ----                                     ----
              STO-SS =           0.0000                STO-SS =           0.0000     STORAGE                          
      CSUB-CGELASTIC =           0.0000        CSUB-CGELASTIC =           0.0000     CSUB                             
        CSUB-ELASTIC =           0.0000          CSUB-ELASTIC =           0.0000     CSUB                             
      CSUB-INELASTIC =           0.0000        CSUB-INELASTIC =           0.0000     CSUB                             
      CSUB-WATERCOMP =           0.0000        CSUB-WATERCOMP =           0.0000     CSUB                             
                 CHD =           0.9735                   CHD =       2.6775E-03     CHD_0                            

           TOTAL OUT =           0.9735             TOTAL OUT =       2.6775E-03

            IN - OUT =       7.5579E-08              IN - OUT =       7.2687E-10

 PERCENT DISCREPANCY =           0.00     PERCENT DISCREPANCY =           0.00




         TIME SUMMARY AT END OF TIME STEP   67 IN STRESS PERIOD    1
                    SECONDS     MINUTES      HOURS       DAYS        YEARS
                    -----------------------------------------------------------
   TIME STEP LENGTH 8.28634E+05  13811.      230.18      9.5907     2.62578E-02
 STRESS PERIOD TIME 1.67393E+07 2.78988E+05  4649.8      193.74     0.53043    
         TOTAL TIME 1.67393E+07 2.78988E+05  4649.8      193.74     0.53043    


end timestep


start timestep kper="1" kstp="68" mode="normal"



  VOLUME BUDGET FOR ENTIRE MODEL AT END OF TIME STEP   68, STRESS PERIOD   1
  ---------------------------------------------------------------------------------------------------

     CUMULATIVE VOLUME      L**3       RATES FOR THIS TIME STEP      L**3/T          PACKAGE NAME    
     ------------------                 ------------------------                     ----------------

           IN:                                      IN:
           ---                                      ---
              STO-SS =           0.0000                STO-SS =           0.0000     STORAGE                          
      CSUB-CGELASTIC =           0.0000        CSUB-CGELASTIC =           0.0000     CSUB                             
        CSUB-ELASTIC =           0.0000          CSUB-ELASTIC =           0.0000     CSUB                             
      CSUB-INELASTIC =           0.9998        CSUB-INELASTIC =       2.6065E-03     CSUB                             
      CSUB-WATERCOMP =           0.0000        CSUB-WATERCOMP =           0.0000     CSUB                             
                 CHD =           0.0000                   CHD =           0.0000     CHD_0                            

            TOTAL IN =           0.9998              TOTAL IN =       2.6065E-03

          OUT:                                     OUT:
          ----                                     ----
              STO-SS =           0.0000                STO-SS =           0.0000     STORAGE                          
      CSUB-CGELASTIC =           0.0000        CSUB-CGELASTIC =           0.0000     CSUB                             
        CSUB-ELASTIC =           0.0000          CSUB-ELASTIC =           0.0000     CSUB                             
      CSUB-INELASTIC =           0.0000        CSUB-INELASTIC =           0.0000     CSUB                             
      CSUB-WATERCOMP =           0.0000        CSUB-WATERCOMP =           0.0000     CSUB                             
                 CHD =           0.9998                   CHD =       2.6065E-03     CHD_0                            

           TOTAL OUT =           0.9998             TOTAL OUT =       2.6065E-03

            IN - OUT =       8.3173E-08              IN - OUT =       7.5416E-10

 PERCENT DISCREPANCY =           0.00     PERCENT DISCREPANCY =           0.00




         TIME SUMMARY AT END OF TIME STEP   68 IN STRESS PERIOD    1
                    SECONDS     MINUTES      HOURS       DAYS        YEARS
                    -----------------------------------------------------------
   TIME STEP LENGTH 8.70066E+05  14501.      241.68      10.070     2.75707E-02
 STRESS PERIOD TIME 1.76093E+07 2.93489E+05  4891.5      203.81     0.55801    
         TOTAL TIME 1.76093E+07 2.93489E+05  4891.5      203.81     0.55801    


end timestep


start timestep kper="1" kstp="69" mode="normal"



  VOLUME BUDGET FOR ENTIRE MODEL AT END OF TIME STEP   69, STRESS PERIOD   1
  ---------------------------------------------------------------------------------------------------

     CUMULATIVE VOLUME      L**3       RATES FOR THIS TIME STEP      L**3/T          PACKAGE NAME    
     ------------------                 ------------------------                     ----------------

           IN:                                      IN:
           ---                                      ---
              STO-SS =           0.0000                STO-SS =           0.0000     STORAGE                          
      CSUB-CGELASTIC =           0.0000        CSUB-CGELASTIC =           0.0000     CSUB                             
        CSUB-ELASTIC =           0.0000          CSUB-ELASTIC =           0.0000     CSUB                             
      CSUB-INELASTIC =           1.0266        CSUB-INELASTIC =       2.5377E-03     CSUB                             
      CSUB-WATERCOMP =           0.0000        CSUB-WATERCOMP =           0.0000     CSUB                             
                 CHD =           0.0000                   CHD =           0.0000     CHD_0                            

            TOTAL IN =           1.0266              TOTAL IN =       2.5377E-03

          OUT:                                     OUT:
          ----                                     ----
              STO-SS =           0.0000                STO-SS =           0.0000     STORAGE                          
      CSUB-CGELASTIC =           0.0000        CSUB-CGELASTIC =           0.0000     CSUB                             
        CSUB-ELASTIC =           0.0000          CSUB-ELASTIC =           0.0000     CSUB                             
      CSUB-INELASTIC =           0.0000        CSUB-INELASTIC =           0.0000     CSUB                             
      CSUB-WATERCOMP =           0.0000        CSUB-WATERCOMP =           0.0000     CSUB                             
                 CHD =           1.0266                   CHD =       2.5377E-03     CHD_0                            

           TOTAL OUT =           1.0266             TOTAL OUT =       2.5377E-03

            IN - OUT =       9.1438E-08              IN - OUT =       7.8167E-10

 PERCENT DISCREPANCY =           0.00     PERCENT DISCREPANCY =           0.00




         TIME SUMMARY AT END OF TIME STEP   69 IN STRESS PERIOD    1
                    SECONDS     MINUTES      HOURS       DAYS        YEARS
                    -----------------------------------------------------------
   TIME STEP LENGTH 9.13569E+05  15226.      253.77      10.574     2.89493E-02
 STRESS PERIOD TIME 1.85229E+07 3.08715E+05  5145.2      214.39     0.58695    
         TOTAL TIME 1.85229E+07 3.08715E+05  5145.2      214.39     0.58695    


end timestep


start timestep kper="1" kstp="70" mode="normal"



  VOLUME BUDGET FOR ENTIRE MODEL AT END OF TIME STEP   70, STRESS PERIOD   1
  ---------------------------------------------------------------------------------------------------

     CUMULATIVE VOLUME      L**3       RATES FOR THIS TIME STEP      L**3/T          PACKAGE NAME    
     ------------------                 ------------------------                     ----------------

           IN:                                      IN:
           ---                                      ---
              STO-SS =           0.0000                STO-SS =           0.0000     STORAGE                          
      CSUB-CGELASTIC =           0.0000        CSUB-CGELASTIC =           0.0000     CSUB                             
        CSUB-ELASTIC =           0.0000          CSUB-ELASTIC =           0.0000     CSUB                             
      CSUB-INELASTIC =           1.0541        CSUB-INELASTIC =       2.4711E-03     CSUB                             
      CSUB-WATERCOMP =           0.0000        CSUB-WATERCOMP =           0.0000     CSUB                             
                 CHD =           0.0000                   CHD =           0.0000     CHD_0                            

            TOTAL IN =           1.0541              TOTAL IN =       2.4711E-03

          OUT:                                     OUT:
          ----                                     ----
              STO-SS =           0.0000                STO-SS =           0.0000     STORAGE                          
      CSUB-CGELASTIC =           0.0000        CSUB-CGELASTIC =           0.0000     CSUB                             
        CSUB-ELASTIC =           0.0000          CSUB-ELASTIC =           0.0000     CSUB                             
      CSUB-INELASTIC =           0.0000        CSUB-INELASTIC =           0.0000     CSUB                             
      CSUB-WATERCOMP =           0.0000        CSUB-WATERCOMP =           0.0000     CSUB                             
                 CHD =           1.0541                   CHD =       2.4711E-03     CHD_0                            

           TOTAL OUT =           1.0541             TOTAL OUT =       2.4711E-03

            IN - OUT =       1.0042E-07              IN - OUT =       8.0941E-10

 PERCENT DISCREPANCY =           0.00     PERCENT DISCREPANCY =           0.00




         TIME SUMMARY AT END OF TIME STEP   70 IN STRESS PERIOD    1
                    SECONDS     MINUTES      HOURS       DAYS        YEARS
                    -----------------------------------------------------------
   TIME STEP LENGTH 9.59248E+05  15987.      266.46      11.102     3.03967E-02
 STRESS PERIOD TIME 1.94821E+07 3.24702E+05  5411.7      225.49     0.61735    
         TOTAL TIME 1.94821E+07 3.24702E+05  5411.7      225.49     0.61735    


end timestep


start timestep kper="1" kstp="71" mode="normal"



  VOLUME BUDGET FOR ENTIRE MODEL AT END OF TIME STEP   71, STRESS PERIOD   1
  ---------------------------------------------------------------------------------------------------

     CUMULATIVE VOLUME      L**3       RATES FOR THIS TIME STEP      L**3/T          PACKAGE NAME    
     ------------------                 ------------------------                     ----------------

           IN:                                      IN:
           ---                                      ---
              STO-SS =           0.0000                STO-SS =           0.0000     STORAGE                          
      CSUB-CGELASTIC =           0.0000        CSUB-CGELASTIC =           0.0000     CSUB                             
        CSUB-ELASTIC =           0.0000          CSUB-ELASTIC =           0.0000     CSUB                             
      CSUB-INELASTIC =           1.0821        CSUB-INELASTIC =       2.4066E-03     CSUB                             
      CSUB-WATERCOMP =           0.0000        CSUB-WATERCOMP =           0.0000     CSUB                             
                 CHD =           0.0000                   CHD =           0.0000     CHD_0                            

            TOTAL IN =           1.0821              TOTAL IN =       2.4066E-03

          OUT:                                     OUT:
          ----                                     ----
              STO-SS =           0.0000                STO-SS =           0.0000     STORAGE                          
      CSUB-CGELASTIC =           0.0000        CSUB-CGELASTIC =           0.0000     CSUB                             
        CSUB-ELASTIC =           0.0000          CSUB-ELASTIC =           0.0000     CSUB                             
      CSUB-INELASTIC =           0.0000        CSUB-INELASTIC =           0.0000     CSUB                             
      CSUB-WATERCOMP =           0.0000        CSUB-WATERCOMP =           0.0000     CSUB                             
                 CHD =           1.0821                   CHD =       2.4066E-03     CHD_0                            

           TOTAL OUT =           1.0821             TOTAL OUT =       2.4066E-03

            IN - OUT =       1.1019E-07              IN - OUT =       8.3738E-10

 PERCENT DISCREPANCY =           0.00     PERCENT DISCREPANCY =           0.00




         TIME SUMMARY AT END OF TIME STEP   71 IN STRESS PERIOD    1
                    SECONDS     MINUTES      HOURS       DAYS        YEARS
                    -----------------------------------------------------------
   TIME STEP LENGTH 1.00721E+06  16787.      279.78      11.658     3.19166E-02
 STRESS PERIOD TIME 2.04893E+07 3.41489E+05  5691.5      237.15     0.64927    
         TOTAL TIME 2.04893E+07 3.41489E+05  5691.5      237.15     0.64927    


end timestep


start timestep kper="1" kstp="72" mode="normal"



  VOLUME BUDGET FOR ENTIRE MODEL AT END OF TIME STEP   72, STRESS PERIOD   1
  ---------------------------------------------------------------------------------------------------

     CUMULATIVE VOLUME      L**3       RATES FOR THIS TIME STEP      L**3/T          PACKAGE NAME    
     ------------------                 ------------------------                     ----------------

           IN:                                      IN:
           ---                                      ---
              STO-SS =           0.0000                STO-SS =           0.0000     STORAGE                          
      CSUB-CGELASTIC =           0.0000        CSUB-CGELASTIC =           0.0000     CSUB                             
        CSUB-ELASTIC =           0.0000          CSUB-ELASTIC =           0.0000     CSUB                             
      CSUB-INELASTIC =           1.1108        CSUB-INELASTIC =       2.3440E-03     CSUB                             
      CSUB-WATERCOMP =           0.0000        CSUB-WATERCOMP =           0.0000     CSUB                             
                 CHD =           0.0000                   CHD =           0.0000     CHD_0                            

            TOTAL IN =           1.1108              TOTAL IN =       2.3440E-03

          OUT:                                     OUT:
          ----                                     ----
              STO-SS =           0.0000                STO-SS =           0.0000     STORAGE                          
      CSUB-CGELASTIC =           0.0000        CSUB-CGELASTIC =           0.0000     CSUB                             
        CSUB-ELASTIC =           0.0000          CSUB-ELASTIC =           0.0000     CSUB                             
      CSUB-INELASTIC =           0.0000        CSUB-INELASTIC =           0.0000     CSUB                             
      CSUB-WATERCOMP =           0.0000        CSUB-WATERCOMP =           0.0000     CSUB                             
                 CHD =           1.1108                   CHD =       2.3440E-03     CHD_0                            

           TOTAL OUT =           1.1108             TOTAL OUT =       2.3440E-03

            IN - OUT =       1.2078E-07              IN - OUT =       8.6559E-10

 PERCENT DISCREPANCY =           0.00     PERCENT DISCREPANCY =           0.00




         TIME SUMMARY AT END OF TIME STEP   72 IN STRESS PERIOD    1
                    SECONDS     MINUTES      HOURS       DAYS        YEARS
                    -----------------------------------------------------------
   TIME STEP LENGTH 1.05757E+06  17626.      293.77      12.240     3.35124E-02
 STRESS PERIOD TIME 2.15469E+07 3.59115E+05  5985.3      249.39     0.68278    
         TOTAL TIME 2.15469E+07 3.59115E+05  5985.3      249.39     0.68278    


end timestep


start timestep kper="1" kstp="73" mode="normal"



  VOLUME BUDGET FOR ENTIRE MODEL AT END OF TIME STEP   73, STRESS PERIOD   1
  ---------------------------------------------------------------------------------------------------

     CUMULATIVE VOLUME      L**3       RATES FOR THIS TIME STEP      L**3/T          PACKAGE NAME    
     ------------------                 ------------------------                     ----------------

           IN:                                      IN:
           ---                                      ---
              STO-SS =           0.0000                STO-SS =           0.0000     STORAGE                          
      CSUB-CGELASTIC =           0.0000        CSUB-CGELASTIC =           0.0000     CSUB                             
        CSUB-ELASTIC =           0.0000          CSUB-ELASTIC =           0.0000     CSUB                             
      CSUB-INELASTIC =           1.1402        CSUB-INELASTIC =       2.2833E-03     CSUB                             
      CSUB-WATERCOMP =           0.0000        CSUB-WATERCOMP =           0.0000     CSUB                             
                 CHD =           0.0000                   CHD =           0.0000     CHD_0                            

            TOTAL IN =           1.1402              TOTAL IN =       2.2833E-03

          OUT:                                     OUT:
          ----                                     ----
              STO-SS =           0.0000                STO-SS =           0.0000     STORAGE                          
      CSUB-CGELASTIC =           0.0000        CSUB-CGELASTIC =           0.0000     CSUB                             
        CSUB-ELASTIC =           0.0000          CSUB-ELASTIC =           0.0000     CSUB                             
      CSUB-INELASTIC =           0.0000        CSUB-INELASTIC =           0.0000     CSUB                             
      CSUB-WATERCOMP =           0.0000        CSUB-WATERCOMP =           0.0000     CSUB                             
                 CHD =           1.1402                   CHD =       2.2833E-03     CHD_0                            

           TOTAL OUT =           1.1402             TOTAL OUT =       2.2833E-03

            IN - OUT =       1.3227E-07              IN - OUT =       8.9405E-10

 PERCENT DISCREPANCY =           0.00     PERCENT DISCREPANCY =           0.00




         TIME SUMMARY AT END OF TIME STEP   73 IN STRESS PERIOD    1
                    SECONDS     MINUTES      HOURS       DAYS        YEARS
                    -----------------------------------------------------------
   TIME STEP LENGTH 1.11045E+06  18507.      308.46      12.852     3.51880E-02
 STRESS PERIOD TIME 2.26574E+07 3.77623E+05  6293.7      262.24     0.71797    
         TOTAL TIME 2.26574E+07 3.77623E+05  6293.7      262.24     0.71797    


end timestep


start timestep kper="1" kstp="74" mode="normal"



  VOLUME BUDGET FOR ENTIRE MODEL AT END OF TIME STEP   74, STRESS PERIOD   1
  ---------------------------------------------------------------------------------------------------

     CUMULATIVE VOLUME      L**3       RATES FOR THIS TIME STEP      L**3/T          PACKAGE NAME    
     ------------------                 ------------------------                     ----------------

           IN:                                      IN:
           ---                                      ---
              STO-SS =           0.0000                STO-SS =           0.0000     STORAGE                          
      CSUB-CGELASTIC =           0.0000        CSUB-CGELASTIC =           0.0000     CSUB                             
        CSUB-ELASTIC =           0.0000          CSUB-ELASTIC =           0.0000     CSUB                             
      CSUB-INELASTIC =           1.1702        CSUB-INELASTIC =       2.2244E-03     CSUB                             
      CSUB-WATERCOMP =           0.0000        CSUB-WATERCOMP =           0.0000     CSUB                             
                 CHD =           0.0000                   CHD =           0.0000     CHD_0                            

            TOTAL IN =           1.1702              TOTAL IN =       2.2244E-03

          OUT:                                     OUT:
          ----                                     ----
              STO-SS =           0.0000                STO-SS =           0.0000     STORAGE                          
      CSUB-CGELASTIC =           0.0000        CSUB-CGELASTIC =           0.0000     CSUB                             
        CSUB-ELASTIC =           0.0000          CSUB-ELASTIC =           0.0000     CSUB                             
      CSUB-INELASTIC =           0.0000        CSUB-INELASTIC =           0.0000     CSUB                             
      CSUB-WATERCOMP =           0.0000        CSUB-WATERCOMP =           0.0000     CSUB                             
                 CHD =           1.1702                   CHD =       2.2244E-03     CHD_0                            

           TOTAL OUT =           1.1702             TOTAL OUT =       2.2244E-03

            IN - OUT =       1.4473E-07              IN - OUT =       9.2277E-10

 PERCENT DISCREPANCY =           0.00     PERCENT DISCREPANCY =           0.00




         TIME SUMMARY AT END OF TIME STEP   74 IN STRESS PERIOD    1
                    SECONDS     MINUTES      HOURS       DAYS        YEARS
                    -----------------------------------------------------------
   TIME STEP LENGTH 1.16597E+06  19433.      323.88      13.495     3.69474E-02
 STRESS PERIOD TIME 2.38233E+07 3.97056E+05  6617.6      275.73     0.75492    
         TOTAL TIME 2.38233E+07 3.97056E+05  6617.6      275.73     0.75492    


end timestep


start timestep kper="1" kstp="75" mode="normal"



  VOLUME BUDGET FOR ENTIRE MODEL AT END OF TIME STEP   75, STRESS PERIOD   1
  ---------------------------------------------------------------------------------------------------

     CUMULATIVE VOLUME      L**3       RATES FOR THIS TIME STEP      L**3/T          PACKAGE NAME    
     ------------------                 ------------------------                     ----------------

           IN:                                      IN:
           ---                                      ---
              STO-SS =           0.0000                STO-SS =           0.0000     STORAGE                          
      CSUB-CGELASTIC =           0.0000        CSUB-CGELASTIC =           0.0000     CSUB                             
        CSUB-ELASTIC =           0.0000          CSUB-ELASTIC =           0.0000     CSUB                             
      CSUB-INELASTIC =           1.2009        CSUB-INELASTIC =       2.1672E-03     CSUB                             
      CSUB-WATERCOMP =           0.0000        CSUB-WATERCOMP =           0.0000     CSUB                             
                 CHD =           0.0000                   CHD =           0.0000     CHD_0                            

            TOTAL IN =           1.2009              TOTAL IN =       2.1672E-03

          OUT:                                     OUT:
          ----                                     ----
              STO-SS =           0.0000                STO-SS =           0.0000     STORAGE                          
      CSUB-CGELASTIC =           0.0000        CSUB-CGELASTIC =           0.0000     CSUB                             
        CSUB-ELASTIC =           0.0000          CSUB-ELASTIC =           0.0000     CSUB                             
      CSUB-INELASTIC =           0.0000        CSUB-INELASTIC =           0.0000     CSUB                             
      CSUB-WATERCOMP =           0.0000        CSUB-WATERCOMP =           0.0000     CSUB                             
                 CHD =           1.2009                   CHD =       2.1672E-03     CHD_0                            

           TOTAL OUT =           1.2009             TOTAL OUT =       2.1672E-03

            IN - OUT =       1.5821E-07              IN - OUT =       9.5174E-10

 PERCENT DISCREPANCY =           0.00     PERCENT DISCREPANCY =           0.00




         TIME SUMMARY AT END OF TIME STEP   75 IN STRESS PERIOD    1
                    SECONDS     MINUTES      HOURS       DAYS        YEARS
                    -----------------------------------------------------------
   TIME STEP LENGTH 1.22427E+06  20404.      340.07      14.170     3.87948E-02
 STRESS PERIOD TIME 2.50476E+07 4.17460E+05  6957.7      289.90     0.79371    
         TOTAL TIME 2.50476E+07 4.17460E+05  6957.7      289.90     0.79371    


end timestep


start timestep kper="1" kstp="76" mode="normal"



  VOLUME BUDGET FOR ENTIRE MODEL AT END OF TIME STEP   76, STRESS PERIOD   1
  ---------------------------------------------------------------------------------------------------

     CUMULATIVE VOLUME      L**3       RATES FOR THIS TIME STEP      L**3/T          PACKAGE NAME    
     ------------------                 ------------------------                     ----------------

           IN:                                      IN:
           ---                                      ---
              STO-SS =           0.0000                STO-SS =           0.0000     STORAGE                          
      CSUB-CGELASTIC =           0.0000        CSUB-CGELASTIC =           0.0000     CSUB                             
        CSUB-ELASTIC =           0.0000          CSUB-ELASTIC =           0.0000     CSUB                             
      CSUB-INELASTIC =           1.2323        CSUB-INELASTIC =       2.1117E-03     CSUB                             
      CSUB-WATERCOMP =           0.0000        CSUB-WATERCOMP =           0.0000     CSUB                             
                 CHD =           0.0000                   CHD =           0.0000     CHD_0                            

            TOTAL IN =           1.2323              TOTAL IN =       2.1117E-03

          OUT:                                     OUT:
          ----                                     ----
              STO-SS =           0.0000                STO-SS =           0.0000     STORAGE                          
      CSUB-CGELASTIC =           0.0000        CSUB-CGELASTIC =           0.0000     CSUB                             
        CSUB-ELASTIC =           0.0000          CSUB-ELASTIC =           0.0000     CSUB                             
      CSUB-INELASTIC =           0.0000        CSUB-INELASTIC =           0.0000     CSUB                             
      CSUB-WATERCOMP =           0.0000        CSUB-WATERCOMP =           0.0000     CSUB                             
                 CHD =           1.2323                   CHD =       2.1117E-03     CHD_0                            

           TOTAL OUT =           1.2323             TOTAL OUT =       2.1117E-03

            IN - OUT =       1.7281E-07              IN - OUT =       9.8099E-10

 PERCENT DISCREPANCY =           0.00     PERCENT DISCREPANCY =           0.00




         TIME SUMMARY AT END OF TIME STEP   76 IN STRESS PERIOD    1
                    SECONDS     MINUTES      HOURS       DAYS        YEARS
                    -----------------------------------------------------------
   TIME STEP LENGTH 1.28548E+06  21425.      357.08      14.878     4.07345E-02
 STRESS PERIOD TIME 2.63331E+07 4.38885E+05  7314.7      304.78     0.83445    
         TOTAL TIME 2.63331E+07 4.38885E+05  7314.7      304.78     0.83445    


end timestep


start timestep kper="1" kstp="77" mode="normal"



  VOLUME BUDGET FOR ENTIRE MODEL AT END OF TIME STEP   77, STRESS PERIOD   1
  ---------------------------------------------------------------------------------------------------

     CUMULATIVE VOLUME      L**3       RATES FOR THIS TIME STEP      L**3/T          PACKAGE NAME    
     ------------------                 ------------------------                     ----------------

           IN:                                      IN:
           ---                                      ---
              STO-SS =           0.0000                STO-SS =           0.0000     STORAGE                          
      CSUB-CGELASTIC =           0.0000        CSUB-CGELASTIC =           0.0000     CSUB                             
        CSUB-ELASTIC =           0.0000          CSUB-ELASTIC =           0.0000     CSUB                             
      CSUB-INELASTIC =           1.2645        CSUB-INELASTIC =       2.0578E-03     CSUB                             
      CSUB-WATERCOMP =           0.0000        CSUB-WATERCOMP =           0.0000     CSUB                             
                 CHD =           0.0000                   CHD =           0.0000     CHD_0                            

            TOTAL IN =           1.2645              TOTAL IN =       2.0578E-03

          OUT:                                     OUT:
          ----                                     ----
              STO-SS =           0.0000                STO-SS =           0.0000     STORAGE                          
      CSUB-CGELASTIC =           0.0000        CSUB-CGELASTIC =           0.0000     CSUB                             
        CSUB-ELASTIC =           0.0000          CSUB-ELASTIC =           0.0000     CSUB                             
      CSUB-INELASTIC =           0.0000        CSUB-INELASTIC =           0.0000     CSUB                             
      CSUB-WATERCOMP =           0.0000        CSUB-WATERCOMP =           0.0000     CSUB                             
                 CHD =           1.2645                   CHD =       2.0578E-03     CHD_0                            

           TOTAL OUT =           1.2645             TOTAL OUT =       2.0578E-03

            IN - OUT =       1.8859E-07              IN - OUT =       1.0105E-09

 PERCENT DISCREPANCY =           0.00     PERCENT DISCREPANCY =           0.00




         TIME SUMMARY AT END OF TIME STEP   77 IN STRESS PERIOD    1
                    SECONDS     MINUTES      HOURS       DAYS        YEARS
                    -----------------------------------------------------------
   TIME STEP LENGTH 1.34976E+06  22496.      374.93      15.622     4.27712E-02
 STRESS PERIOD TIME 2.76828E+07 4.61381E+05  7689.7      320.40     0.87722    
         TOTAL TIME 2.76828E+07 4.61381E+05  7689.7      320.40     0.87722    


end timestep


start timestep kper="1" kstp="78" mode="normal"



  VOLUME BUDGET FOR ENTIRE MODEL AT END OF TIME STEP   78, STRESS PERIOD   1
  ---------------------------------------------------------------------------------------------------

     CUMULATIVE VOLUME      L**3       RATES FOR THIS TIME STEP      L**3/T          PACKAGE NAME    
     ------------------                 ------------------------                     ----------------

           IN:                                      IN:
           ---                                      ---
              STO-SS =           0.0000                STO-SS =           0.0000     STORAGE                          
      CSUB-CGELASTIC =           0.0000        CSUB-CGELASTIC =           0.0000     CSUB                             
        CSUB-ELASTIC =           0.0000          CSUB-ELASTIC =           0.0000     CSUB                             
      CSUB-INELASTIC =           1.2973        CSUB-INELASTIC =       2.0055E-03     CSUB                             
      CSUB-WATERCOMP =           0.0000        CSUB-WATERCOMP =           0.0000     CSUB                             
                 CHD =           0.0000                   CHD =           0.0000     CHD_0                            

            TOTAL IN =           1.2973              TOTAL IN =       2.0055E-03

          OUT:                                     OUT:
          ----                                     ----
              STO-SS =           0.0000                STO-SS =           0.0000     STORAGE                          
      CSUB-CGELASTIC =           0.0000        CSUB-CGELASTIC =           0.0000     CSUB                             
        CSUB-ELASTIC =           0.0000          CSUB-ELASTIC =           0.0000     CSUB                             
      CSUB-INELASTIC =           0.0000        CSUB-INELASTIC =           0.0000     CSUB                             
      CSUB-WATERCOMP =           0.0000        CSUB-WATERCOMP =           0.0000     CSUB                             
                 CHD =           1.2973                   CHD =       2.0055E-03     CHD_0                            

           TOTAL OUT =           1.2973             TOTAL OUT =       2.0055E-03

            IN - OUT =       2.0566E-07              IN - OUT =       1.0403E-09

 PERCENT DISCREPANCY =           0.00     PERCENT DISCREPANCY =           0.00




         TIME SUMMARY AT END OF TIME STEP   78 IN STRESS PERIOD    1
                    SECONDS     MINUTES      HOURS       DAYS        YEARS
                    -----------------------------------------------------------
   TIME STEP LENGTH 1.41725E+06  23621.      393.68      16.403     4.49098E-02
 STRESS PERIOD TIME 2.91001E+07 4.85002E+05  8083.4      336.81     0.92213    
         TOTAL TIME 2.91001E+07 4.85002E+05  8083.4      336.81     0.92213    


end timestep


start timestep kper="1" kstp="79" mode="normal"



  VOLUME BUDGET FOR ENTIRE MODEL AT END OF TIME STEP   79, STRESS PERIOD   1
  ---------------------------------------------------------------------------------------------------

     CUMULATIVE VOLUME      L**3       RATES FOR THIS TIME STEP      L**3/T          PACKAGE NAME    
     ------------------                 ------------------------                     ----------------

           IN:                                      IN:
           ---                                      ---
              STO-SS =           0.0000                STO-SS =           0.0000     STORAGE                          
      CSUB-CGELASTIC =           0.0000        CSUB-CGELASTIC =           0.0000     CSUB                             
        CSUB-ELASTIC =           0.0000          CSUB-ELASTIC =           0.0000     CSUB                             
      CSUB-INELASTIC =           1.3310        CSUB-INELASTIC =       1.9546E-03     CSUB                             
      CSUB-WATERCOMP =           0.0000        CSUB-WATERCOMP =           0.0000     CSUB                             
                 CHD =           0.0000                   CHD =           0.0000     CHD_0                            

            TOTAL IN =           1.3310              TOTAL IN =       1.9546E-03

          OUT:                                     OUT:
          ----                                     ----
              STO-SS =           0.0000                STO-SS =           0.0000     STORAGE                          
      CSUB-CGELASTIC =           0.0000        CSUB-CGELASTIC =           0.0000     CSUB                             
        CSUB-ELASTIC =           0.0000          CSUB-ELASTIC =           0.0000     CSUB                             
      CSUB-INELASTIC =           0.0000        CSUB-INELASTIC =           0.0000     CSUB                             
      CSUB-WATERCOMP =           0.0000        CSUB-WATERCOMP =           0.0000     CSUB                             
                 CHD =           1.3310                   CHD =       1.9546E-03     CHD_0                            

           TOTAL OUT =           1.3310             TOTAL OUT =       1.9546E-03

            IN - OUT =       2.2409E-07              IN - OUT =       1.0704E-09

 PERCENT DISCREPANCY =           0.00     PERCENT DISCREPANCY =           0.00




         TIME SUMMARY AT END OF TIME STEP   79 IN STRESS PERIOD    1
                    SECONDS     MINUTES      HOURS       DAYS        YEARS
                    -----------------------------------------------------------
   TIME STEP LENGTH 1.48811E+06  24802.      413.36      17.223     4.71553E-02
 STRESS PERIOD TIME 3.05882E+07 5.09803E+05  8496.7      354.03     0.96928    
         TOTAL TIME 3.05882E+07 5.09803E+05  8496.7      354.03     0.96928    


end timestep


start timestep kper="1" kstp="80" mode="normal"



  VOLUME BUDGET FOR ENTIRE MODEL AT END OF TIME STEP   80, STRESS PERIOD   1
  ---------------------------------------------------------------------------------------------------

     CUMULATIVE VOLUME      L**3       RATES FOR THIS TIME STEP      L**3/T          PACKAGE NAME    
     ------------------                 ------------------------                     ----------------

           IN:                                      IN:
           ---                                      ---
              STO-SS =           0.0000                STO-SS =           0.0000     STORAGE                          
      CSUB-CGELASTIC =           0.0000        CSUB-CGELASTIC =           0.0000     CSUB                             
        CSUB-ELASTIC =           0.0000          CSUB-ELASTIC =           0.0000     CSUB                             
      CSUB-INELASTIC =           1.3655        CSUB-INELASTIC =       1.9051E-03     CSUB                             
      CSUB-WATERCOMP =           0.0000        CSUB-WATERCOMP =           0.0000     CSUB                             
                 CHD =           0.0000                   CHD =           0.0000     CHD_0                            

            TOTAL IN =           1.3655              TOTAL IN =       1.9051E-03

          OUT:                                     OUT:
          ----                                     ----
              STO-SS =           0.0000                STO-SS =           0.0000     STORAGE                          
      CSUB-CGELASTIC =           0.0000        CSUB-CGELASTIC =           0.0000     CSUB                             
        CSUB-ELASTIC =           0.0000          CSUB-ELASTIC =           0.0000     CSUB                             
      CSUB-INELASTIC =           0.0000        CSUB-INELASTIC =           0.0000     CSUB                             
      CSUB-WATERCOMP =           0.0000        CSUB-WATERCOMP =           0.0000     CSUB                             
                 CHD =           1.3655                   CHD =       1.9051E-03     CHD_0                            

           TOTAL OUT =           1.3655             TOTAL OUT =       1.9051E-03

            IN - OUT =       2.4400E-07              IN - OUT =       1.1007E-09

 PERCENT DISCREPANCY =           0.00     PERCENT DISCREPANCY =           0.00




         TIME SUMMARY AT END OF TIME STEP   80 IN STRESS PERIOD    1
                    SECONDS     MINUTES      HOURS       DAYS        YEARS
                    -----------------------------------------------------------
   TIME STEP LENGTH 1.56251E+06  26042.      434.03      18.085     4.95131E-02
 STRESS PERIOD TIME 3.21507E+07 5.35845E+05  8930.8      372.11      1.0188    
         TOTAL TIME 3.21507E+07 5.35845E+05  8930.8      372.11      1.0188    


end timestep


start timestep kper="1" kstp="81" mode="normal"



  VOLUME BUDGET FOR ENTIRE MODEL AT END OF TIME STEP   81, STRESS PERIOD   1
  ---------------------------------------------------------------------------------------------------

     CUMULATIVE VOLUME      L**3       RATES FOR THIS TIME STEP      L**3/T          PACKAGE NAME    
     ------------------                 ------------------------                     ----------------

           IN:                                      IN:
           ---                                      ---
              STO-SS =           0.0000                STO-SS =           0.0000     STORAGE                          
      CSUB-CGELASTIC =           0.0000        CSUB-CGELASTIC =           0.0000     CSUB                             
        CSUB-ELASTIC =           0.0000          CSUB-ELASTIC =           0.0000     CSUB                             
      CSUB-INELASTIC =           1.4007        CSUB-INELASTIC =       1.8570E-03     CSUB                             
      CSUB-WATERCOMP =           0.0000        CSUB-WATERCOMP =           0.0000     CSUB                             
                 CHD =           0.0000                   CHD =           0.0000     CHD_0                            

            TOTAL IN =           1.4007              TOTAL IN =       1.8570E-03

          OUT:                                     OUT:
          ----                                     ----
              STO-SS =           0.0000                STO-SS =           0.0000     STORAGE                          
      CSUB-CGELASTIC =           0.0000        CSUB-CGELASTIC =           0.0000     CSUB                             
        CSUB-ELASTIC =           0.0000          CSUB-ELASTIC =           0.0000     CSUB                             
      CSUB-INELASTIC =           0.0000        CSUB-INELASTIC =           0.0000     CSUB                             
      CSUB-WATERCOMP =           0.0000        CSUB-WATERCOMP =           0.0000     CSUB                             
                 CHD =           1.4007                   CHD =       1.8570E-03     CHD_0                            

           TOTAL OUT =           1.4007             TOTAL OUT =       1.8570E-03

            IN - OUT =       2.6548E-07              IN - OUT =       1.1314E-09

 PERCENT DISCREPANCY =           0.00     PERCENT DISCREPANCY =           0.00




         TIME SUMMARY AT END OF TIME STEP   81 IN STRESS PERIOD    1
                    SECONDS     MINUTES      HOURS       DAYS        YEARS
                    -----------------------------------------------------------
   TIME STEP LENGTH 1.64064E+06  27344.      455.73      18.989     5.19887E-02
 STRESS PERIOD TIME 3.37914E+07 5.63189E+05  9386.5      391.10      1.0708    
         TOTAL TIME 3.37914E+07 5.63189E+05  9386.5      391.10      1.0708    


end timestep


start timestep kper="1" kstp="82" mode="normal"



  VOLUME BUDGET FOR ENTIRE MODEL AT END OF TIME STEP   82, STRESS PERIOD   1
  ---------------------------------------------------------------------------------------------------

     CUMULATIVE VOLUME      L**3       RATES FOR THIS TIME STEP      L**3/T          PACKAGE NAME    
     ------------------                 ------------------------                     ----------------

           IN:                                      IN:
           ---                                      ---
              STO-SS =           0.0000                STO-SS =           0.0000     STORAGE                          
      CSUB-CGELASTIC =           0.0000        CSUB-CGELASTIC =           0.0000     CSUB                             
        CSUB-ELASTIC =           0.0000          CSUB-ELASTIC =           0.0000     CSUB                             
      CSUB-INELASTIC =           1.4368        CSUB-INELASTIC =       1.8102E-03     CSUB                             
      CSUB-WATERCOMP =           0.0000        CSUB-WATERCOMP =           0.0000     CSUB                             
                 CHD =           0.0000                   CHD =           0.0000     CHD_0                            

            TOTAL IN =           1.4368              TOTAL IN =       1.8102E-03

          OUT:                                     OUT:
          ----                                     ----
              STO-SS =           0.0000                STO-SS =           0.0000     STORAGE                          
      CSUB-CGELASTIC =           0.0000        CSUB-CGELASTIC =           0.0000     CSUB                             
        CSUB-ELASTIC =           0.0000          CSUB-ELASTIC =           0.0000     CSUB                             
      CSUB-INELASTIC =           0.0000        CSUB-INELASTIC =           0.0000     CSUB                             
      CSUB-WATERCOMP =           0.0000        CSUB-WATERCOMP =           0.0000     CSUB                             
                 CHD =           1.4368                   CHD =       1.8102E-03     CHD_0                            

           TOTAL OUT =           1.4368             TOTAL OUT =       1.8102E-03

            IN - OUT =       2.8866E-07              IN - OUT =       1.1623E-09

 PERCENT DISCREPANCY =           0.00     PERCENT DISCREPANCY =           0.00




         TIME SUMMARY AT END OF TIME STEP   82 IN STRESS PERIOD    1
                    SECONDS     MINUTES      HOURS       DAYS        YEARS
                    -----------------------------------------------------------
   TIME STEP LENGTH 1.72267E+06  28711.      478.52      19.938     5.45881E-02
 STRESS PERIOD TIME 3.55140E+07 5.91900E+05  9865.0      411.04      1.1254    
         TOTAL TIME 3.55140E+07 5.91900E+05  9865.0      411.04      1.1254    


end timestep


start timestep kper="1" kstp="83" mode="normal"



  VOLUME BUDGET FOR ENTIRE MODEL AT END OF TIME STEP   83, STRESS PERIOD   1
  ---------------------------------------------------------------------------------------------------

     CUMULATIVE VOLUME      L**3       RATES FOR THIS TIME STEP      L**3/T          PACKAGE NAME    
     ------------------                 ------------------------                     ----------------

           IN:                                      IN:
           ---                                      ---
              STO-SS =           0.0000                STO-SS =           0.0000     STORAGE                          
      CSUB-CGELASTIC =           0.0000        CSUB-CGELASTIC =           0.0000     CSUB                             
        CSUB-ELASTIC =           0.0000          CSUB-ELASTIC =           0.0000     CSUB                             
      CSUB-INELASTIC =           1.4738        CSUB-INELASTIC =       1.7647E-03     CSUB                             
      CSUB-WATERCOMP =           0.0000        CSUB-WATERCOMP =           0.0000     CSUB                             
                 CHD =           0.0000                   CHD =           0.0000     CHD_0                            

            TOTAL IN =           1.4738              TOTAL IN =       1.7647E-03

          OUT:                                     OUT:
          ----                                     ----
              STO-SS =           0.0000                STO-SS =           0.0000     STORAGE                          
      CSUB-CGELASTIC =           0.0000        CSUB-CGELASTIC =           0.0000     CSUB                             
        CSUB-ELASTIC =           0.0000          CSUB-ELASTIC =           0.0000     CSUB                             
      CSUB-INELASTIC =           0.0000        CSUB-INELASTIC =           0.0000     CSUB                             
      CSUB-WATERCOMP =           0.0000        CSUB-WATERCOMP =           0.0000     CSUB                             
                 CHD =           1.4738                   CHD =       1.7647E-03     CHD_0                            

           TOTAL OUT =           1.4738             TOTAL OUT =       1.7647E-03

            IN - OUT =       3.1365E-07              IN - OUT =       1.1936E-09

 PERCENT DISCREPANCY =           0.00     PERCENT DISCREPANCY =           0.00




         TIME SUMMARY AT END OF TIME STEP   83 IN STRESS PERIOD    1
                    SECONDS     MINUTES      HOURS       DAYS        YEARS
                    -----------------------------------------------------------
   TIME STEP LENGTH 1.80880E+06  30147.      502.45      20.935     5.73175E-02
 STRESS PERIOD TIME 3.73228E+07 6.22047E+05  10367.      431.98      1.1827    
         TOTAL TIME 3.73228E+07 6.22047E+05  10367.      431.98      1.1827    


end timestep


start timestep kper="1" kstp="84" mode="normal"



  VOLUME BUDGET FOR ENTIRE MODEL AT END OF TIME STEP   84, STRESS PERIOD   1
  ---------------------------------------------------------------------------------------------------

     CUMULATIVE VOLUME      L**3       RATES FOR THIS TIME STEP      L**3/T          PACKAGE NAME    
     ------------------                 ------------------------                     ----------------

           IN:                                      IN:
           ---                                      ---
              STO-SS =           0.0000                STO-SS =           0.0000     STORAGE                          
      CSUB-CGELASTIC =           0.0000        CSUB-CGELASTIC =           0.0000     CSUB                             
        CSUB-ELASTIC =           0.0000          CSUB-ELASTIC =           0.0000     CSUB                             
      CSUB-INELASTIC =           1.5116        CSUB-INELASTIC =       1.7204E-03     CSUB                             
      CSUB-WATERCOMP =           0.0000        CSUB-WATERCOMP =           0.0000     CSUB                             
                 CHD =           0.0000                   CHD =           0.0000     CHD_0                            

            TOTAL IN =           1.5116              TOTAL IN =       1.7204E-03

          OUT:                                     OUT:
          ----                                     ----
              STO-SS =           0.0000                STO-SS =           0.0000     STORAGE                          
      CSUB-CGELASTIC =           0.0000        CSUB-CGELASTIC =           0.0000     CSUB                             
        CSUB-ELASTIC =           0.0000          CSUB-ELASTIC =           0.0000     CSUB                             
      CSUB-INELASTIC =           0.0000        CSUB-INELASTIC =           0.0000     CSUB                             
      CSUB-WATERCOMP =           0.0000        CSUB-WATERCOMP =           0.0000     CSUB                             
                 CHD =           1.5116                   CHD =       1.7204E-03     CHD_0                            

           TOTAL OUT =           1.5116             TOTAL OUT =       1.7204E-03

            IN - OUT =       3.4057E-07              IN - OUT =       1.2250E-09

 PERCENT DISCREPANCY =           0.00     PERCENT DISCREPANCY =           0.00




         TIME SUMMARY AT END OF TIME STEP   84 IN STRESS PERIOD    1
                    SECONDS     MINUTES      HOURS       DAYS        YEARS
                    -----------------------------------------------------------
   TIME STEP LENGTH 1.89924E+06  31654.      527.57      21.982     6.01834E-02
 STRESS PERIOD TIME 3.92221E+07 6.53701E+05  10895.      453.96      1.2429    
         TOTAL TIME 3.92221E+07 6.53701E+05  10895.      453.96      1.2429    


end timestep


start timestep kper="1" kstp="85" mode="normal"



  VOLUME BUDGET FOR ENTIRE MODEL AT END OF TIME STEP   85, STRESS PERIOD   1
  ---------------------------------------------------------------------------------------------------

     CUMULATIVE VOLUME      L**3       RATES FOR THIS TIME STEP      L**3/T          PACKAGE NAME    
     ------------------                 ------------------------                     ----------------

           IN:                                      IN:
           ---                                      ---
              STO-SS =           0.0000                STO-SS =           0.0000     STORAGE                          
      CSUB-CGELASTIC =           0.0000        CSUB-CGELASTIC =           0.0000     CSUB                             
        CSUB-ELASTIC =           0.0000          CSUB-ELASTIC =           0.0000     CSUB                             
      CSUB-INELASTIC =           1.5503        CSUB-INELASTIC =       1.6774E-03     CSUB                             
      CSUB-WATERCOMP =           0.0000        CSUB-WATERCOMP =           0.0000     CSUB                             
                 CHD =           0.0000                   CHD =           0.0000     CHD_0                            

            TOTAL IN =           1.5503              TOTAL IN =       1.6774E-03

          OUT:                                     OUT:
          ----                                     ----
              STO-SS =           0.0000                STO-SS =           0.0000     STORAGE                          
      CSUB-CGELASTIC =           0.0000        CSUB-CGELASTIC =           0.0000     CSUB                             
        CSUB-ELASTIC =           0.0000          CSUB-ELASTIC =           0.0000     CSUB                             
      CSUB-INELASTIC =           0.0000        CSUB-INELASTIC =           0.0000     CSUB                             
      CSUB-WATERCOMP =           0.0000        CSUB-WATERCOMP =           0.0000     CSUB                             
                 CHD =           1.5503                   CHD =       1.6774E-03     CHD_0                            

           TOTAL OUT =           1.5503             TOTAL OUT =       1.6774E-03

            IN - OUT =       3.6958E-07              IN - OUT =       1.2568E-09

 PERCENT DISCREPANCY =           0.00     PERCENT DISCREPANCY =           0.00




         TIME SUMMARY AT END OF TIME STEP   85 IN STRESS PERIOD    1
                    SECONDS     MINUTES      HOURS       DAYS        YEARS
                    -----------------------------------------------------------
   TIME STEP LENGTH 1.99421E+06  33237.      553.95      23.081     6.31926E-02
 STRESS PERIOD TIME 4.12163E+07 6.86938E+05  11449.      477.04      1.3061    
         TOTAL TIME 4.12163E+07 6.86938E+05  11449.      477.04      1.3061    


end timestep


start timestep kper="1" kstp="86" mode="normal"



  VOLUME BUDGET FOR ENTIRE MODEL AT END OF TIME STEP   86, STRESS PERIOD   1
  ---------------------------------------------------------------------------------------------------

     CUMULATIVE VOLUME      L**3       RATES FOR THIS TIME STEP      L**3/T          PACKAGE NAME    
     ------------------                 ------------------------                     ----------------

           IN:                                      IN:
           ---                                      ---
              STO-SS =           0.0000                STO-SS =           0.0000     STORAGE                          
      CSUB-CGELASTIC =           0.0000        CSUB-CGELASTIC =           0.0000     CSUB                             
        CSUB-ELASTIC =           0.0000          CSUB-ELASTIC =           0.0000     CSUB                             
      CSUB-INELASTIC =           1.5899        CSUB-INELASTIC =       1.6354E-03     CSUB                             
      CSUB-WATERCOMP =           0.0000        CSUB-WATERCOMP =           0.0000     CSUB                             
                 CHD =           0.0000                   CHD =           0.0000     CHD_0                            

            TOTAL IN =           1.5899              TOTAL IN =       1.6354E-03

          OUT:                                     OUT:
          ----                                     ----
              STO-SS =           0.0000                STO-SS =           0.0000     STORAGE                          
      CSUB-CGELASTIC =           0.0000        CSUB-CGELASTIC =           0.0000     CSUB                             
        CSUB-ELASTIC =           0.0000          CSUB-ELASTIC =           0.0000     CSUB                             
      CSUB-INELASTIC =           0.0000        CSUB-INELASTIC =           0.0000     CSUB                             
      CSUB-WATERCOMP =           0.0000        CSUB-WATERCOMP =           0.0000     CSUB                             
                 CHD =           1.5899                   CHD =       1.6354E-03     CHD_0                            

           TOTAL OUT =           1.5899             TOTAL OUT =       1.6354E-03

            IN - OUT =       4.0082E-07              IN - OUT =       1.2888E-09

 PERCENT DISCREPANCY =           0.00     PERCENT DISCREPANCY =           0.00




         TIME SUMMARY AT END OF TIME STEP   86 IN STRESS PERIOD    1
                    SECONDS     MINUTES      HOURS       DAYS        YEARS
                    -----------------------------------------------------------
   TIME STEP LENGTH 2.09392E+06  34899.      581.64      24.235     6.63522E-02
 STRESS PERIOD TIME 4.33102E+07 7.21837E+05  12031.      501.28      1.3724    
         TOTAL TIME 4.33102E+07 7.21837E+05  12031.      501.28      1.3724    


end timestep


start timestep kper="1" kstp="87" mode="normal"



  VOLUME BUDGET FOR ENTIRE MODEL AT END OF TIME STEP   87, STRESS PERIOD   1
  ---------------------------------------------------------------------------------------------------

     CUMULATIVE VOLUME      L**3       RATES FOR THIS TIME STEP      L**3/T          PACKAGE NAME    
     ------------------                 ------------------------                     ----------------

           IN:                                      IN:
           ---                                      ---
              STO-SS =           0.0000                STO-SS =           0.0000     STORAGE                          
      CSUB-CGELASTIC =           0.0000        CSUB-CGELASTIC =           0.0000     CSUB                             
        CSUB-ELASTIC =           0.0000          CSUB-ELASTIC =           0.0000     CSUB                             
      CSUB-INELASTIC =           1.6305        CSUB-INELASTIC =       1.5946E-03     CSUB                             
      CSUB-WATERCOMP =           0.0000        CSUB-WATERCOMP =           0.0000     CSUB                             
                 CHD =           0.0000                   CHD =           0.0000     CHD_0                            

            TOTAL IN =           1.6305              TOTAL IN =       1.5946E-03

          OUT:                                     OUT:
          ----                                     ----
              STO-SS =           0.0000                STO-SS =           0.0000     STORAGE                          
      CSUB-CGELASTIC =           0.0000        CSUB-CGELASTIC =           0.0000     CSUB                             
        CSUB-ELASTIC =           0.0000          CSUB-ELASTIC =           0.0000     CSUB                             
      CSUB-INELASTIC =           0.0000        CSUB-INELASTIC =           0.0000     CSUB                             
      CSUB-WATERCOMP =           0.0000        CSUB-WATERCOMP =           0.0000     CSUB                             
                 CHD =           1.6305                   CHD =       1.5946E-03     CHD_0                            

           TOTAL OUT =           1.6305             TOTAL OUT =       1.5946E-03

            IN - OUT =       4.3443E-07              IN - OUT =       1.3209E-09

 PERCENT DISCREPANCY =           0.00     PERCENT DISCREPANCY =           0.00




         TIME SUMMARY AT END OF TIME STEP   87 IN STRESS PERIOD    1
                    SECONDS     MINUTES      HOURS       DAYS        YEARS
                    -----------------------------------------------------------
   TIME STEP LENGTH 2.19861E+06  36644.      610.73      25.447     6.96698E-02
 STRESS PERIOD TIME 4.55088E+07 7.58480E+05  12641.      526.72      1.4421    
         TOTAL TIME 4.55088E+07 7.58480E+05  12641.      526.72      1.4421    


end timestep


start timestep kper="1" kstp="88" mode="normal"



  VOLUME BUDGET FOR ENTIRE MODEL AT END OF TIME STEP   88, STRESS PERIOD   1
  ---------------------------------------------------------------------------------------------------

     CUMULATIVE VOLUME      L**3       RATES FOR THIS TIME STEP      L**3/T          PACKAGE NAME    
     ------------------                 ------------------------                     ----------------

           IN:                                      IN:
           ---                                      ---
              STO-SS =           0.0000                STO-SS =           0.0000     STORAGE                          
      CSUB-CGELASTIC =           0.0000        CSUB-CGELASTIC =           0.0000     CSUB                             
        CSUB-ELASTIC =           0.0000          CSUB-ELASTIC =           0.0000     CSUB                             
      CSUB-INELASTIC =           1.6721        CSUB-INELASTIC =       1.5549E-03     CSUB                             
      CSUB-WATERCOMP =           0.0000        CSUB-WATERCOMP =           0.0000     CSUB                             
                 CHD =           0.0000                   CHD =           0.0000     CHD_0                            

            TOTAL IN =           1.6721              TOTAL IN =       1.5549E-03

          OUT:                                     OUT:
          ----                                     ----
              STO-SS =           0.0000                STO-SS =           0.0000     STORAGE                          
      CSUB-CGELASTIC =           0.0000        CSUB-CGELASTIC =           0.0000     CSUB                             
        CSUB-ELASTIC =           0.0000          CSUB-ELASTIC =           0.0000     CSUB                             
      CSUB-INELASTIC =           0.0000        CSUB-INELASTIC =           0.0000     CSUB                             
      CSUB-WATERCOMP =           0.0000        CSUB-WATERCOMP =           0.0000     CSUB                             
                 CHD =           1.6721                   CHD =       1.5549E-03     CHD_0                            

           TOTAL OUT =           1.6721             TOTAL OUT =       1.5549E-03

            IN - OUT =       4.7059E-07              IN - OUT =       1.3532E-09

 PERCENT DISCREPANCY =           0.00     PERCENT DISCREPANCY =           0.00




         TIME SUMMARY AT END OF TIME STEP   88 IN STRESS PERIOD    1
                    SECONDS     MINUTES      HOURS       DAYS        YEARS
                    -----------------------------------------------------------
   TIME STEP LENGTH 2.30854E+06  38476.      641.26      26.719     7.31533E-02
 STRESS PERIOD TIME 4.78174E+07 7.96956E+05  13283.      553.44      1.5152    
         TOTAL TIME 4.78174E+07 7.96956E+05  13283.      553.44      1.5152    


end timestep


start timestep kper="1" kstp="89" mode="normal"



  VOLUME BUDGET FOR ENTIRE MODEL AT END OF TIME STEP   89, STRESS PERIOD   1
  ---------------------------------------------------------------------------------------------------

     CUMULATIVE VOLUME      L**3       RATES FOR THIS TIME STEP      L**3/T          PACKAGE NAME    
     ------------------                 ------------------------                     ----------------

           IN:                                      IN:
           ---                                      ---
              STO-SS =           0.0000                STO-SS =           0.0000     STORAGE                          
      CSUB-CGELASTIC =           0.0000        CSUB-CGELASTIC =           0.0000     CSUB                             
        CSUB-ELASTIC =           0.0000          CSUB-ELASTIC =           0.0000     CSUB                             
      CSUB-INELASTIC =           1.7146        CSUB-INELASTIC =       1.5162E-03     CSUB                             
      CSUB-WATERCOMP =           0.0000        CSUB-WATERCOMP =           0.0000     CSUB                             
                 CHD =           0.0000                   CHD =           0.0000     CHD_0                            

            TOTAL IN =           1.7146              TOTAL IN =       1.5162E-03

          OUT:                                     OUT:
          ----                                     ----
              STO-SS =           0.0000                STO-SS =           0.0000     STORAGE                          
      CSUB-CGELASTIC =           0.0000        CSUB-CGELASTIC =           0.0000     CSUB                             
        CSUB-ELASTIC =           0.0000          CSUB-ELASTIC =           0.0000     CSUB                             
      CSUB-INELASTIC =           0.0000        CSUB-INELASTIC =           0.0000     CSUB                             
      CSUB-WATERCOMP =           0.0000        CSUB-WATERCOMP =           0.0000     CSUB                             
                 CHD =           1.7146                   CHD =       1.5162E-03     CHD_0                            

           TOTAL OUT =           1.7146             TOTAL OUT =       1.5162E-03

            IN - OUT =       5.0946E-07              IN - OUT =       1.3855E-09

 PERCENT DISCREPANCY =           0.00     PERCENT DISCREPANCY =           0.00




         TIME SUMMARY AT END OF TIME STEP   89 IN STRESS PERIOD    1
                    SECONDS     MINUTES      HOURS       DAYS        YEARS
                    -----------------------------------------------------------
   TIME STEP LENGTH 2.42397E+06  40400.      673.33      28.055     7.68110E-02
 STRESS PERIOD TIME 5.02413E+07 8.37355E+05  13956.      581.50      1.5921    
         TOTAL TIME 5.02413E+07 8.37355E+05  13956.      581.50      1.5921    


end timestep


start timestep kper="1" kstp="90" mode="normal"



  VOLUME BUDGET FOR ENTIRE MODEL AT END OF TIME STEP   90, STRESS PERIOD   1
  ---------------------------------------------------------------------------------------------------

     CUMULATIVE VOLUME      L**3       RATES FOR THIS TIME STEP      L**3/T          PACKAGE NAME    
     ------------------                 ------------------------                     ----------------

           IN:                                      IN:
           ---                                      ---
              STO-SS =           0.0000                STO-SS =           0.0000     STORAGE                          
      CSUB-CGELASTIC =           0.0000        CSUB-CGELASTIC =           0.0000     CSUB                             
        CSUB-ELASTIC =           0.0000          CSUB-ELASTIC =           0.0000     CSUB                             
      CSUB-INELASTIC =           1.7581        CSUB-INELASTIC =       1.4785E-03     CSUB                             
      CSUB-WATERCOMP =           0.0000        CSUB-WATERCOMP =           0.0000     CSUB                             
                 CHD =           0.0000                   CHD =           0.0000     CHD_0                            

            TOTAL IN =           1.7581              TOTAL IN =       1.4785E-03

          OUT:                                     OUT:
          ----                                     ----
              STO-SS =           0.0000                STO-SS =           0.0000     STORAGE                          
      CSUB-CGELASTIC =           0.0000        CSUB-CGELASTIC =           0.0000     CSUB                             
        CSUB-ELASTIC =           0.0000          CSUB-ELASTIC =           0.0000     CSUB                             
      CSUB-INELASTIC =           0.0000        CSUB-INELASTIC =           0.0000     CSUB                             
      CSUB-WATERCOMP =           0.0000        CSUB-WATERCOMP =           0.0000     CSUB                             
                 CHD =           1.7581                   CHD =       1.4785E-03     CHD_0                            

           TOTAL OUT =           1.7581             TOTAL OUT =       1.4785E-03

            IN - OUT =       5.5122E-07              IN - OUT =       1.4178E-09

 PERCENT DISCREPANCY =           0.00     PERCENT DISCREPANCY =           0.00




         TIME SUMMARY AT END OF TIME STEP   90 IN STRESS PERIOD    1
                    SECONDS     MINUTES      HOURS       DAYS        YEARS
                    -----------------------------------------------------------
   TIME STEP LENGTH 2.54517E+06  42419.      706.99      29.458     8.06515E-02
 STRESS PERIOD TIME 5.27865E+07 8.79775E+05  14663.      610.95      1.6727    
         TOTAL TIME 5.27865E+07 8.79775E+05  14663.      610.95      1.6727    


end timestep


start timestep kper="1" kstp="91" mode="normal"



  VOLUME BUDGET FOR ENTIRE MODEL AT END OF TIME STEP   91, STRESS PERIOD   1
  ---------------------------------------------------------------------------------------------------

     CUMULATIVE VOLUME      L**3       RATES FOR THIS TIME STEP      L**3/T          PACKAGE NAME    
     ------------------                 ------------------------                     ----------------

           IN:                                      IN:
           ---                                      ---
              STO-SS =           0.0000                STO-SS =           0.0000     STORAGE                          
      CSUB-CGELASTIC =           0.0000        CSUB-CGELASTIC =           0.0000     CSUB                             
        CSUB-ELASTIC =           0.0000          CSUB-ELASTIC =           0.0000     CSUB                             
      CSUB-INELASTIC =           1.8027        CSUB-INELASTIC =       1.4417E-03     CSUB                             
      CSUB-WATERCOMP =           0.0000        CSUB-WATERCOMP =           0.0000     CSUB                             
                 CHD =           0.0000                   CHD =           0.0000     CHD_0                            

            TOTAL IN =           1.8027              TOTAL IN =       1.4417E-03

          OUT:                                     OUT:
          ----                                     ----
              STO-SS =           0.0000                STO-SS =           0.0000     STORAGE                          
      CSUB-CGELASTIC =           0.0000        CSUB-CGELASTIC =           0.0000     CSUB                             
        CSUB-ELASTIC =           0.0000          CSUB-ELASTIC =           0.0000     CSUB                             
      CSUB-INELASTIC =           0.0000        CSUB-INELASTIC =           0.0000     CSUB                             
      CSUB-WATERCOMP =           0.0000        CSUB-WATERCOMP =           0.0000     CSUB                             
                 CHD =           1.8027                   CHD =       1.4417E-03     CHD_0                            

           TOTAL OUT =           1.8027             TOTAL OUT =       1.4417E-03

            IN - OUT =       5.9607E-07              IN - OUT =       1.4500E-09

 PERCENT DISCREPANCY =           0.00     PERCENT DISCREPANCY =           0.00




         TIME SUMMARY AT END OF TIME STEP   91 IN STRESS PERIOD    1
                    SECONDS     MINUTES      HOURS       DAYS        YEARS
                    -----------------------------------------------------------
   TIME STEP LENGTH 2.67243E+06  44540.      742.34      30.931     8.46841E-02
 STRESS PERIOD TIME 5.54589E+07 9.24315E+05  15405.      641.89      1.7574    
         TOTAL TIME 5.54589E+07 9.24315E+05  15405.      641.89      1.7574    


end timestep


start timestep kper="1" kstp="92" mode="normal"



  VOLUME BUDGET FOR ENTIRE MODEL AT END OF TIME STEP   92, STRESS PERIOD   1
  ---------------------------------------------------------------------------------------------------

     CUMULATIVE VOLUME      L**3       RATES FOR THIS TIME STEP      L**3/T          PACKAGE NAME    
     ------------------                 ------------------------                     ----------------

           IN:                                      IN:
           ---                                      ---
              STO-SS =           0.0000                STO-SS =           0.0000     STORAGE                          
      CSUB-CGELASTIC =           0.0000        CSUB-CGELASTIC =           0.0000     CSUB                             
        CSUB-ELASTIC =           0.0000          CSUB-ELASTIC =           0.0000     CSUB                             
      CSUB-INELASTIC =           1.8484        CSUB-INELASTIC =       1.4058E-03     CSUB                             
      CSUB-WATERCOMP =           0.0000        CSUB-WATERCOMP =           0.0000     CSUB                             
                 CHD =           0.0000                   CHD =           0.0000     CHD_0                            

            TOTAL IN =           1.8484              TOTAL IN =       1.4058E-03

          OUT:                                     OUT:
          ----                                     ----
              STO-SS =           0.0000                STO-SS =           0.0000     STORAGE                          
      CSUB-CGELASTIC =           0.0000        CSUB-CGELASTIC =           0.0000     CSUB                             
        CSUB-ELASTIC =           0.0000          CSUB-ELASTIC =           0.0000     CSUB                             
      CSUB-INELASTIC =           0.0000        CSUB-INELASTIC =           0.0000     CSUB                             
      CSUB-WATERCOMP =           0.0000        CSUB-WATERCOMP =           0.0000     CSUB                             
                 CHD =           1.8484                   CHD =       1.4058E-03     CHD_0                            

           TOTAL OUT =           1.8484             TOTAL OUT =       1.4058E-03

            IN - OUT =       6.4420E-07              IN - OUT =       1.4818E-09

 PERCENT DISCREPANCY =           0.00     PERCENT DISCREPANCY =           0.00




         TIME SUMMARY AT END OF TIME STEP   92 IN STRESS PERIOD    1
                    SECONDS     MINUTES      HOURS       DAYS        YEARS
                    -----------------------------------------------------------
   TIME STEP LENGTH 2.80605E+06  46767.      779.46      32.477     8.89183E-02
 STRESS PERIOD TIME 5.82650E+07 9.71083E+05  16185.      674.36      1.8463    
         TOTAL TIME 5.82650E+07 9.71083E+05  16185.      674.36      1.8463    


end timestep


start timestep kper="1" kstp="93" mode="normal"



  VOLUME BUDGET FOR ENTIRE MODEL AT END OF TIME STEP   93, STRESS PERIOD   1
  ---------------------------------------------------------------------------------------------------

     CUMULATIVE VOLUME      L**3       RATES FOR THIS TIME STEP      L**3/T          PACKAGE NAME    
     ------------------                 ------------------------                     ----------------

           IN:                                      IN:
           ---                                      ---
              STO-SS =           0.0000                STO-SS =           0.0000     STORAGE                          
      CSUB-CGELASTIC =           0.0000        CSUB-CGELASTIC =           0.0000     CSUB                             
        CSUB-ELASTIC =           0.0000          CSUB-ELASTIC =           0.0000     CSUB                             
      CSUB-INELASTIC =           1.8951        CSUB-INELASTIC =       1.3709E-03     CSUB                             
      CSUB-WATERCOMP =           0.0000        CSUB-WATERCOMP =           0.0000     CSUB                             
                 CHD =           0.0000                   CHD =           0.0000     CHD_0                            

            TOTAL IN =           1.8951              TOTAL IN =       1.3709E-03

          OUT:                                     OUT:
          ----                                     ----
              STO-SS =           0.0000                STO-SS =           0.0000     STORAGE                          
      CSUB-CGELASTIC =           0.0000        CSUB-CGELASTIC =           0.0000     CSUB                             
        CSUB-ELASTIC =           0.0000          CSUB-ELASTIC =           0.0000     CSUB                             
      CSUB-INELASTIC =           0.0000        CSUB-INELASTIC =           0.0000     CSUB                             
      CSUB-WATERCOMP =           0.0000        CSUB-WATERCOMP =           0.0000     CSUB                             
                 CHD =           1.8951                   CHD =       1.3709E-03     CHD_0                            

           TOTAL OUT =           1.8951             TOTAL OUT =       1.3709E-03

            IN - OUT =       6.9580E-07              IN - OUT =       1.5131E-09

 PERCENT DISCREPANCY =           0.00     PERCENT DISCREPANCY =           0.00




         TIME SUMMARY AT END OF TIME STEP   93 IN STRESS PERIOD    1
                    SECONDS     MINUTES      HOURS       DAYS        YEARS
                    -----------------------------------------------------------
   TIME STEP LENGTH 2.94635E+06  49106.      818.43      34.101     9.33642E-02
 STRESS PERIOD TIME 6.12113E+07 1.02019E+06  17003.      708.46      1.9397    
         TOTAL TIME 6.12113E+07 1.02019E+06  17003.      708.46      1.9397    


end timestep


start timestep kper="1" kstp="94" mode="normal"



  VOLUME BUDGET FOR ENTIRE MODEL AT END OF TIME STEP   94, STRESS PERIOD   1
  ---------------------------------------------------------------------------------------------------

     CUMULATIVE VOLUME      L**3       RATES FOR THIS TIME STEP      L**3/T          PACKAGE NAME    
     ------------------                 ------------------------                     ----------------

           IN:                                      IN:
           ---                                      ---
              STO-SS =           0.0000                STO-SS =           0.0000     STORAGE                          
      CSUB-CGELASTIC =           0.0000        CSUB-CGELASTIC =           0.0000     CSUB                             
        CSUB-ELASTIC =           0.0000          CSUB-ELASTIC =           0.0000     CSUB                             
      CSUB-INELASTIC =           1.9430        CSUB-INELASTIC =       1.3367E-03     CSUB                             
      CSUB-WATERCOMP =           0.0000        CSUB-WATERCOMP =           0.0000     CSUB                             
                 CHD =           0.0000                   CHD =           0.0000     CHD_0                            

            TOTAL IN =           1.9430              TOTAL IN =       1.3367E-03

          OUT:                                     OUT:
          ----                                     ----
              STO-SS =           0.0000                STO-SS =           0.0000     STORAGE                          
      CSUB-CGELASTIC =           0.0000        CSUB-CGELASTIC =           0.0000     CSUB                             
        CSUB-ELASTIC =           0.0000          CSUB-ELASTIC =           0.0000     CSUB                             
      CSUB-INELASTIC =           0.0000        CSUB-INELASTIC =           0.0000     CSUB                             
      CSUB-WATERCOMP =           0.0000        CSUB-WATERCOMP =           0.0000     CSUB                             
                 CHD =           1.9430                   CHD =       1.3367E-03     CHD_0                            

           TOTAL OUT =           1.9430             TOTAL OUT =       1.3367E-03

            IN - OUT =       7.5108E-07              IN - OUT =       1.5438E-09

 PERCENT DISCREPANCY =           0.00     PERCENT DISCREPANCY =           0.00




         TIME SUMMARY AT END OF TIME STEP   94 IN STRESS PERIOD    1
                    SECONDS     MINUTES      HOURS       DAYS        YEARS
                    -----------------------------------------------------------
   TIME STEP LENGTH 3.09367E+06  51561.      859.35      35.806     9.80325E-02
 STRESS PERIOD TIME 6.43050E+07 1.07175E+06  17862.      744.27      2.0377    
         TOTAL TIME 6.43050E+07 1.07175E+06  17862.      744.27      2.0377    


end timestep


start timestep kper="1" kstp="95" mode="normal"



  VOLUME BUDGET FOR ENTIRE MODEL AT END OF TIME STEP   95, STRESS PERIOD   1
  ---------------------------------------------------------------------------------------------------

     CUMULATIVE VOLUME      L**3       RATES FOR THIS TIME STEP      L**3/T          PACKAGE NAME    
     ------------------                 ------------------------                     ----------------

           IN:                                      IN:
           ---                                      ---
              STO-SS =           0.0000                STO-SS =           0.0000     STORAGE                          
      CSUB-CGELASTIC =           0.0000        CSUB-CGELASTIC =           0.0000     CSUB                             
        CSUB-ELASTIC =           0.0000          CSUB-ELASTIC =           0.0000     CSUB                             
      CSUB-INELASTIC =           1.9920        CSUB-INELASTIC =       1.3034E-03     CSUB                             
      CSUB-WATERCOMP =           0.0000        CSUB-WATERCOMP =           0.0000     CSUB                             
                 CHD =           0.0000                   CHD =           0.0000     CHD_0                            

            TOTAL IN =           1.9920              TOTAL IN =       1.3034E-03

          OUT:                                     OUT:
          ----                                     ----
              STO-SS =           0.0000                STO-SS =           0.0000     STORAGE                          
      CSUB-CGELASTIC =           0.0000        CSUB-CGELASTIC =           0.0000     CSUB                             
        CSUB-ELASTIC =           0.0000          CSUB-ELASTIC =           0.0000     CSUB                             
      CSUB-INELASTIC =           0.0000        CSUB-INELASTIC =           0.0000     CSUB                             
      CSUB-WATERCOMP =           0.0000        CSUB-WATERCOMP =           0.0000     CSUB                             
                 CHD =           1.9920                   CHD =       1.3034E-03     CHD_0                            

           TOTAL OUT =           1.9920             TOTAL OUT =       1.3034E-03

            IN - OUT =       8.1024E-07              IN - OUT =       1.5736E-09

 PERCENT DISCREPANCY =           0.00     PERCENT DISCREPANCY =           0.00




         TIME SUMMARY AT END OF TIME STEP   95 IN STRESS PERIOD    1
                    SECONDS     MINUTES      HOURS       DAYS        YEARS
                    -----------------------------------------------------------
   TIME STEP LENGTH 3.24835E+06  54139.      902.32      37.597     0.10293    
 STRESS PERIOD TIME 6.75533E+07 1.12589E+06  18765.      781.87      2.1406    
         TOTAL TIME 6.75533E+07 1.12589E+06  18765.      781.87      2.1406    


end timestep


start timestep kper="1" kstp="96" mode="normal"



  VOLUME BUDGET FOR ENTIRE MODEL AT END OF TIME STEP   96, STRESS PERIOD   1
  ---------------------------------------------------------------------------------------------------

     CUMULATIVE VOLUME      L**3       RATES FOR THIS TIME STEP      L**3/T          PACKAGE NAME    
     ------------------                 ------------------------                     ----------------

           IN:                                      IN:
           ---                                      ---
              STO-SS =           0.0000                STO-SS =           0.0000     STORAGE                          
      CSUB-CGELASTIC =           0.0000        CSUB-CGELASTIC =           0.0000     CSUB                             
        CSUB-ELASTIC =           0.0000          CSUB-ELASTIC =           0.0000     CSUB                             
      CSUB-INELASTIC =           2.0422        CSUB-INELASTIC =       1.2707E-03     CSUB                             
      CSUB-WATERCOMP =           0.0000        CSUB-WATERCOMP =           0.0000     CSUB                             
                 CHD =           0.0000                   CHD =           0.0000     CHD_0                            

            TOTAL IN =           2.0422              TOTAL IN =       1.2707E-03

          OUT:                                     OUT:
          ----                                     ----
              STO-SS =           0.0000                STO-SS =           0.0000     STORAGE                          
      CSUB-CGELASTIC =           0.0000        CSUB-CGELASTIC =           0.0000     CSUB                             
        CSUB-ELASTIC =           0.0000          CSUB-ELASTIC =           0.0000     CSUB                             
      CSUB-INELASTIC =           0.0000        CSUB-INELASTIC =           0.0000     CSUB                             
      CSUB-WATERCOMP =           0.0000        CSUB-WATERCOMP =           0.0000     CSUB                             
                 CHD =           2.0422                   CHD =       1.2707E-03     CHD_0                            

           TOTAL OUT =           2.0422             TOTAL OUT =       1.2707E-03

            IN - OUT =       8.7349E-07              IN - OUT =       1.6023E-09

 PERCENT DISCREPANCY =           0.00     PERCENT DISCREPANCY =           0.00




         TIME SUMMARY AT END OF TIME STEP   96 IN STRESS PERIOD    1
                    SECONDS     MINUTES      HOURS       DAYS        YEARS
                    -----------------------------------------------------------
   TIME STEP LENGTH 3.41077E+06  56846.      947.44      39.477     0.10808    
 STRESS PERIOD TIME 7.09641E+07 1.18274E+06  19712.      821.34      2.2487    
         TOTAL TIME 7.09641E+07 1.18274E+06  19712.      821.34      2.2487    


end timestep


start timestep kper="1" kstp="97" mode="normal"



  VOLUME BUDGET FOR ENTIRE MODEL AT END OF TIME STEP   97, STRESS PERIOD   1
  ---------------------------------------------------------------------------------------------------

     CUMULATIVE VOLUME      L**3       RATES FOR THIS TIME STEP      L**3/T          PACKAGE NAME    
     ------------------                 ------------------------                     ----------------

           IN:                                      IN:
           ---                                      ---
              STO-SS =           0.0000                STO-SS =           0.0000     STORAGE                          
      CSUB-CGELASTIC =           0.0000        CSUB-CGELASTIC =           0.0000     CSUB                             
        CSUB-ELASTIC =           0.0000          CSUB-ELASTIC =           0.0000     CSUB                             
      CSUB-INELASTIC =           2.0935        CSUB-INELASTIC =       1.2388E-03     CSUB                             
      CSUB-WATERCOMP =           0.0000        CSUB-WATERCOMP =           0.0000     CSUB                             
                 CHD =           0.0000                   CHD =           0.0000     CHD_0                            

            TOTAL IN =           2.0935              TOTAL IN =       1.2388E-03

          OUT:                                     OUT:
          ----                                     ----
              STO-SS =           0.0000                STO-SS =           0.0000     STORAGE                          
      CSUB-CGELASTIC =           0.0000        CSUB-CGELASTIC =           0.0000     CSUB                             
        CSUB-ELASTIC =           0.0000          CSUB-ELASTIC =           0.0000     CSUB                             
      CSUB-INELASTIC =           0.0000        CSUB-INELASTIC =           0.0000     CSUB                             
      CSUB-WATERCOMP =           0.0000        CSUB-WATERCOMP =           0.0000     CSUB                             
                 CHD =           2.0935                   CHD =       1.2388E-03     CHD_0                            

           TOTAL OUT =           2.0935             TOTAL OUT =       1.2388E-03

            IN - OUT =       9.4104E-07              IN - OUT =       1.6296E-09

 PERCENT DISCREPANCY =           0.00     PERCENT DISCREPANCY =           0.00




         TIME SUMMARY AT END OF TIME STEP   97 IN STRESS PERIOD    1
                    SECONDS     MINUTES      HOURS       DAYS        YEARS
                    -----------------------------------------------------------
   TIME STEP LENGTH 3.58131E+06  59688.      994.81      41.450     0.11348    
 STRESS PERIOD TIME 7.45454E+07 1.24242E+06  20707.      862.79      2.3622    
         TOTAL TIME 7.45454E+07 1.24242E+06  20707.      862.79      2.3622    


end timestep


start timestep kper="1" kstp="98" mode="normal"



  VOLUME BUDGET FOR ENTIRE MODEL AT END OF TIME STEP   98, STRESS PERIOD   1
  ---------------------------------------------------------------------------------------------------

     CUMULATIVE VOLUME      L**3       RATES FOR THIS TIME STEP      L**3/T          PACKAGE NAME    
     ------------------                 ------------------------                     ----------------

           IN:                                      IN:
           ---                                      ---
              STO-SS =           0.0000                STO-SS =           0.0000     STORAGE                          
      CSUB-CGELASTIC =           0.0000        CSUB-CGELASTIC =           0.0000     CSUB                             
        CSUB-ELASTIC =           0.0000          CSUB-ELASTIC =           0.0000     CSUB                             
      CSUB-INELASTIC =           2.1461        CSUB-INELASTIC =       1.2075E-03     CSUB                             
      CSUB-WATERCOMP =           0.0000        CSUB-WATERCOMP =           0.0000     CSUB                             
                 CHD =           0.0000                   CHD =           0.0000     CHD_0                            

            TOTAL IN =           2.1461              TOTAL IN =       1.2075E-03

          OUT:                                     OUT:
          ----                                     ----
              STO-SS =           0.0000                STO-SS =           0.0000     STORAGE                          
      CSUB-CGELASTIC =           0.0000        CSUB-CGELASTIC =           0.0000     CSUB                             
        CSUB-ELASTIC =           0.0000          CSUB-ELASTIC =           0.0000     CSUB                             
      CSUB-INELASTIC =           0.0000        CSUB-INELASTIC =           0.0000     CSUB                             
      CSUB-WATERCOMP =           0.0000        CSUB-WATERCOMP =           0.0000     CSUB                             
                 CHD =           2.1461                   CHD =       1.2075E-03     CHD_0                            

           TOTAL OUT =           2.1461             TOTAL OUT =       1.2075E-03

            IN - OUT =       1.0131E-06              IN - OUT =       1.6554E-09

 PERCENT DISCREPANCY =           0.00     PERCENT DISCREPANCY =           0.00




         TIME SUMMARY AT END OF TIME STEP   98 IN STRESS PERIOD    1
                    SECONDS     MINUTES      HOURS       DAYS        YEARS
                    -----------------------------------------------------------
   TIME STEP LENGTH 3.76037E+06  62673.      1044.5      43.523     0.11916    
 STRESS PERIOD TIME 7.83058E+07 1.30510E+06  21752.      906.32      2.4814    
         TOTAL TIME 7.83058E+07 1.30510E+06  21752.      906.32      2.4814    


end timestep


start timestep kper="1" kstp="99" mode="normal"



  VOLUME BUDGET FOR ENTIRE MODEL AT END OF TIME STEP   99, STRESS PERIOD   1
  ---------------------------------------------------------------------------------------------------

     CUMULATIVE VOLUME      L**3       RATES FOR THIS TIME STEP      L**3/T          PACKAGE NAME    
     ------------------                 ------------------------                     ----------------

           IN:                                      IN:
           ---                                      ---
              STO-SS =           0.0000                STO-SS =           0.0000     STORAGE                          
      CSUB-CGELASTIC =           0.0000        CSUB-CGELASTIC =           0.0000     CSUB                             
        CSUB-ELASTIC =           0.0000          CSUB-ELASTIC =           0.0000     CSUB                             
      CSUB-INELASTIC =           2.1999        CSUB-INELASTIC =       1.1768E-03     CSUB                             
      CSUB-WATERCOMP =           0.0000        CSUB-WATERCOMP =           0.0000     CSUB                             
                 CHD =           0.0000                   CHD =           0.0000     CHD_0                            

            TOTAL IN =           2.1999              TOTAL IN =       1.1768E-03

          OUT:                                     OUT:
          ----                                     ----
              STO-SS =           0.0000                STO-SS =           0.0000     STORAGE                          
      CSUB-CGELASTIC =           0.0000        CSUB-CGELASTIC =           0.0000     CSUB                             
        CSUB-ELASTIC =           0.0000          CSUB-ELASTIC =           0.0000     CSUB                             
      CSUB-INELASTIC =           0.0000        CSUB-INELASTIC =           0.0000     CSUB                             
      CSUB-WATERCOMP =           0.0000        CSUB-WATERCOMP =           0.0000     CSUB                             
                 CHD =           2.1999                   CHD =       1.1768E-03     CHD_0                            

           TOTAL OUT =           2.1999             TOTAL OUT =       1.1768E-03

            IN - OUT =       1.0898E-06              IN - OUT =       1.6793E-09

 PERCENT DISCREPANCY =           0.00     PERCENT DISCREPANCY =           0.00




         TIME SUMMARY AT END OF TIME STEP   99 IN STRESS PERIOD    1
                    SECONDS     MINUTES      HOURS       DAYS        YEARS
                    -----------------------------------------------------------
   TIME STEP LENGTH 3.94839E+06  65807.      1096.8      45.699     0.12512    
 STRESS PERIOD TIME 8.22542E+07 1.37090E+06  22848.      952.02      2.6065    
         TOTAL TIME 8.22542E+07 1.37090E+06  22848.      952.02      2.6065    


end timestep


start timestep kper="1" kstp="100" mode="normal"



  VOLUME BUDGET FOR ENTIRE MODEL AT END OF TIME STEP  100, STRESS PERIOD   1
  ---------------------------------------------------------------------------------------------------

     CUMULATIVE VOLUME      L**3       RATES FOR THIS TIME STEP      L**3/T          PACKAGE NAME    
     ------------------                 ------------------------                     ----------------

           IN:                                      IN:
           ---                                      ---
              STO-SS =           0.0000                STO-SS =           0.0000     STORAGE                          
      CSUB-CGELASTIC =           0.0000        CSUB-CGELASTIC =           0.0000     CSUB                             
        CSUB-ELASTIC =           0.0000          CSUB-ELASTIC =           0.0000     CSUB                             
      CSUB-INELASTIC =           2.2549        CSUB-INELASTIC =       1.1466E-03     CSUB                             
      CSUB-WATERCOMP =           0.0000        CSUB-WATERCOMP =           0.0000     CSUB                             
                 CHD =           0.0000                   CHD =           0.0000     CHD_0                            

            TOTAL IN =           2.2549              TOTAL IN =       1.1466E-03

          OUT:                                     OUT:
          ----                                     ----
              STO-SS =           0.0000                STO-SS =           0.0000     STORAGE                          
      CSUB-CGELASTIC =           0.0000        CSUB-CGELASTIC =           0.0000     CSUB                             
        CSUB-ELASTIC =           0.0000          CSUB-ELASTIC =           0.0000     CSUB                             
      CSUB-INELASTIC =           0.0000        CSUB-INELASTIC =           0.0000     CSUB                             
      CSUB-WATERCOMP =           0.0000        CSUB-WATERCOMP =           0.0000     CSUB                             
                 CHD =           2.2549                   CHD =       1.1466E-03     CHD_0                            

           TOTAL OUT =           2.2549             TOTAL OUT =       1.1466E-03

            IN - OUT =       1.1715E-06              IN - OUT =       1.7012E-09

 PERCENT DISCREPANCY =           0.00     PERCENT DISCREPANCY =           0.00




         TIME SUMMARY AT END OF TIME STEP  100 IN STRESS PERIOD    1
                    SECONDS     MINUTES      HOURS       DAYS        YEARS
                    -----------------------------------------------------------
   TIME STEP LENGTH 4.14581E+06  69097.      1151.6      47.984     0.13137    
 STRESS PERIOD TIME 8.64000E+07 1.44000E+06  24000.      1000.0      2.7379    
         TOTAL TIME 8.64000E+07 1.44000E+06  24000.      1000.0      2.7379    


end timestep

 
 LARGEST 1 OF 1 INTERBED STRAIN VALUES SHOWN

 CSUB PACKAGE INTERBED STRAIN SUMMARY
 ----------------------------------------------------------------------------------------------------------------------
  INTERBED   INTERBED                         INITIAL       FINAL        TOTAL                    PERCENT              
   NUMBER      TYPE    CELLID                THICKNESS    THICKNESS    COMPACTION  FINAL STRAIN  COMPACTION     FLAG   
 ----------------------------------------------------------------------------------------------------------------------
     1        delay    (1,1,2)               50.000       50.000       2.2549       4.50976E-02  4.5098        *>=1%   
 ----------------------------------------------------------------------------------------------------------------------



 PERCENT COMPACTION IS GREATER THAN OR EQUAL TO 1 PERCENT IN 1 OF 1 INTERBED(S).
 USE THE STRAIN_CSV_INTERBED OPTION TO OUTPUT A CSV FILE WITH PERCENT COMPACTION 
 VALUES FOR ALL INTERBEDS.

 COARSE-GRAINED STORAGE PERCENT COMPACTION WAS LESS THAN 1 PERCENT IN ALL CELLS
