                                   MODFLOW 6
                U.S. GEOLOGICAL SURVEY MODULAR HYDROLOGIC MODEL
                          GROUNDWATER FLOW MODEL (GWF)
                            VERSION 6.4.4 02/13/2024

   MODFLOW 6 compiled Feb 13 2024 15:40:13 with Intel(R) Fortran Intel(R) 64
   Compiler Classic for applications running on Intel(R) 64, Version 2021.7.0
                             Build 20220726_000000

This software has been approved for release by the U.S. Geological 
Survey (USGS). Although the software has been subjected to rigorous 
review, the USGS reserves the right to update the software as needed 
pursuant to further analysis and review. No warranty, expressed or 
implied, is made by the USGS or the U.S. Government as to the 
functionality of the software and related material nor shall the 
fact of release constitute any such warranty. Furthermore, the 
software is released on condition that neither the USGS nor the U.S. 
Government shall be held liable for any damages resulting from its 
authorized or unauthorized use. Also refer to the USGS Water 
Resources Software User Rights Notice for complete use, copyright, 
and distribution information.


As a work of the United States Government, this USGS product is 
in the public domain within the United States. You can copy, 
modify, distribute, and perform the work, even for commercial 
purposes, all without asking permission. Additionally, USGS 
waives copyright and related rights in the work worldwide 
through CC0 1.0 Universal Public Domain Dedication 
(https://creativecommons.org/publicdomain/zero/1.0/).

The following GNU Lesser General Public License (LGPL) libraries
are used in this USGS product:

    SPARSKIT version 2.0
      ilut, luson, and qsplit 
      (https://www-users.cse.umn.edu/~saad/software/SPARSKIT/)

    RCM - Reverse Cuthill McKee Ordering
      (https://people.math.sc.edu/Burkardt/f_src/rcm/rcm.html)

    BLAS - Basic Linear Algebra Subprograms Level 1
      (https://people.math.sc.edu/Burkardt/f_src/blas1_d/blas1_d.html)

    SPARSEKIT - Sparse Matrix Utility Package
      amux, dperm, dvperm, rperm, and cperm
      (https://people.sc.fsu.edu/~jburkardt/f77_src/sparsekit/sparsekit.html)

The following BSD-3 License libraries are used in this USGS product:

    Modern Fortran DAG Library
      Copyright (c) 2018, Jacob Williams
      All rights reserved.
      (https://github.com/jacobwilliams/daglib)

MODFLOW 6 compiler options: /Isrc\libmf6core.a.p /Isrc /I..\src
/Isrc\libmf6_external.a.p /MTd /nologo /warn:general /warn:truncated_source
/stand:f08 /Zi /traceback /O2 /fpe:0 /heap-arrays:0 /traceback /fpp
/Qdiag-disable:7416 /Qdiag-disable:7025 /Qdiag-disable:5268
/Fdsrc\libmf6core.a.p\Utilities_compilerversion.F90.pdb
/module:src\libmf6core.a.p
/Fosrc/libmf6core.a.p/Utilities_compilerversion.F90.obj /c

System command used to initiate simulation:
"F:\新建文件夹\给韩尚麒\衡水模型\地面沉降包离散节点小论文\新版本算例\Case study\算例2\MODFLOW-CSUB\mf6.exe"

MODFLOW was compiled using uniform precision.

Real Variables
  KIND: 8
  TINY (smallest non-zero value):    2.225074-308
  HUGE (largest value):    1.797693+308
  PRECISION: 15
  SIZE IN BITS: 64

Integer Variables
  KIND: 4
  HUGE (largest value): 2147483647
  SIZE IN BITS: 32

Long Integer Variables
  KIND: 8
  HUGE (largest value): 9223372036854775807
  SIZE IN BITS: 64

Logical Variables
  KIND: 4
  SIZE IN BITS: 32
 
 NAMEFILE OPTIONS:
    FLOWS WILL BE SAVED TO BUDGET FILE SPECIFIED IN OUTPUT CONTROL
 END NAMEFILE OPTIONS:

 DIS -- STRUCTURED GRID DISCRETIZATION PACKAGE, VERSION 2 : 3/27/2014 - INPUT READ FROM MEMPATH: __INPUT__/CASE2/DIS                               


 NPF -- NODE PROPERTY FLOW PACKAGE, VERSION 1, 3/30/2015 INPUT READ FROM MEMPATH: __INPUT__/CASE2/NPF                               


 IC -- Initial Conditions Package, Version 8, 3/28/2015 input read from mempath: __INPUT__/CASE2/IC                                


 Setting Discretization Options
    Model length unit [0=UND, 1=FEET, 2=METERS, 3=CENTIMETERS] set as 2
 End Setting Discretization Options

 Setting Discretization Dimensions
    NLAY = 1
    NROW = 1
    NCOL = 3
 End Setting Discretization Dimensions

 Setting Discretization Griddata
    DELR set from input file
    DELC set from input file
    TOP set from input file
    BOTM set from input file
 End Setting Discretization Griddata

 Setting NPF Options
    Specific discharge will be calculated at cell centers and written to DATA-SPDIS in budget file when requested.
 End Setting NPF Options

 Setting NPF Griddata
    ICELLTYPE set from input file
    K set from input file
    K33 not provided.  Setting K33 = K.
    K22 not provided.  Setting K22 = K.
 End Setting NPF Griddata


 CHD   -- CHD PACKAGE, VERSION 8, 2/22/2014 INPUT READ FROM MEMPATH: __INPUT__/CASE2/CHD_0                             

 PROCESSING CHD BASE OPTIONS
 END OF CHD BASE OPTIONS

 PROCESSING CHD BASE DIMENSIONS
    MAXBOUND =       2
 END OF CHD BASE DIMENSIONS
    STRT set from input file

 STO -- STORAGE PACKAGE, VERSION 1, 5/19/2014 INPUT READ FROM UNIT 1005


 # File generated by Flopy version 3.6.0.dev0 on 02/07/2024 at 20:14:53.
 PROCESSING STORAGE OPTIONS
 END OF STORAGE OPTIONS
 PROCESSING GRIDDATA

                 ICONVERT = 0

         SPECIFIC STORAGE =   0.000000    

           SPECIFIC YIELD =   0.000000    
 END PROCESSING GRIDDATA

 CSUB -- COMPACTION PACKAGE, VERSION 1, 12/15/2019 INPUT READ FROM UNIT 1010


 # File generated by Flopy version 3.6.0.dev0 on 02/07/2024 at 20:14:53.
 PROCESSING CSUB OPTIONS
    CSUB BOUNDARIES HAVE NAMES IN LAST COLUMN.
    LISTS OF CSUB CELLS WILL BE PRINTED.
    FLOWS WILL BE SAVED TO BUDGET FILE SPECIFIED IN OUTPUT CONTROL

 OPENED case2.csub.obs
 FILE TYPE:OBS   UNIT 1014   STATUS:OLD                 
 FORMAT:FORMATTED              ACCESS:SEQUENTIAL          
 ACTION:READ                

 END OF CSUB OPTIONS


 CSUB PACKAGE SETTINGS
    NUMBER OF DELAY CELLS = 1001
    EFFECTIVE-STRESS FORMULATION
    ELASTIC AND INELASTIC SPECIFIC STORAGE COEFFICIENTS WILL BE 
      SPECIFIED
    THICKNESS AND VOID RATIO WILL NOT BE ADJUSTED DURING THE
      SIMULATION
    INTERBED THICKNESS WILL BE SPECIFIED AS A THICKNESS
    PRECONSOLIDATION STRESS WILL BE SPECIFIED RELATIVE TO INITIAL
      STRESS CONDITIONS
    DELAY INTERBED HEADS WILL BE SPECIFIED RELATIVE TO INITIAL 
      GWF HEADS
    SPECIFIC STORAGE VALUES WILL BE CALCULATED USING THE CURRENT
      EFFECTIVE STRESS
    GAMMAW        = 9806.650000000000
    BETA          = .000000000000000
    GAMMAW * BETA = .000000000000000

 PROCESSING CSUB DIMENSIONS
    NINTERBEDS = 1
 END OF CSUB DIMENSIONS

The observation utility is active for "CSUB"
 # File generated by Flopy version 3.6.0.dev0 on 02/07/2024 at 20:14:53.

Processing observation options:

Text output number of digits of precision set to: 10
The PRINT_INPUT option has been specified.


 OBSERVATIONS READ FROM FILE "case2.csub.obs"
 ----------------------------------------------------------------------------------------------------------------------------------------------------------------------------------------------------------------------------
 NAME                                     TYPE                                       TIME         LOCATION DATA                              OUTPUT FILENAME                                                                 
 ----------------------------------------------------------------------------------------------------------------------------------------------------------------------------------------------------------------------------
 TCOMP                                    CONTINUOUS  INTERBED-COMPACTION            ALL TIMES    "  ib1"                                    case2.csub.obs.csv                                                              
 SK                                       CONTINUOUS  SK                             ALL TIMES    "  ib1"                                    case2.csub.obs.csv                                                              
 QTOP                                     CONTINUOUS  DELAY-FLOWTOP                  ALL TIMES    "  1"                                      case2.csub.obs.csv                                                              
 QBOT                                     CONTINUOUS  DELAY-FLOWBOT                  ALL TIMES    "  1"                                      case2.csub.obs.csv                                                              
 H0001                                    CONTINUOUS  DELAY-HEAD                     ALL TIMES    "  1  1"                                   case2.csub.obs.csv                                                              
 H0002                                    CONTINUOUS  DELAY-HEAD                     ALL TIMES    "  1  2"                                   case2.csub.obs.csv                                                              
 H0003                                    CONTINUOUS  DELAY-HEAD                     ALL TIMES    "  1  3"                                   case2.csub.obs.csv                                                              
 H0004                                    CONTINUOUS  DELAY-HEAD                     ALL TIMES    "  1  4"                                   case2.csub.obs.csv                                                              
 H0005                                    CONTINUOUS  DELAY-HEAD                     ALL TIMES    "  1  5"                                   case2.csub.obs.csv                                                              
 H0006                                    CONTINUOUS  DELAY-HEAD                     ALL TIMES    "  1  6"                                   case2.csub.obs.csv                                                              
 H0007                                    CONTINUOUS  DELAY-HEAD                     ALL TIMES    "  1  7"                                   case2.csub.obs.csv                                                              
 H0008                                    CONTINUOUS  DELAY-HEAD                     ALL TIMES    "  1  8"                                   case2.csub.obs.csv                                                              
 H0009                                    CONTINUOUS  DELAY-HEAD                     ALL TIMES    "  1  9"                                   case2.csub.obs.csv                                                              
 H0010                                    CONTINUOUS  DELAY-HEAD                     ALL TIMES    "  1  10"                                  case2.csub.obs.csv                                                              
 H0011                                    CONTINUOUS  DELAY-HEAD                     ALL TIMES    "  1  11"                                  case2.csub.obs.csv                                                              
 H0012                                    CONTINUOUS  DELAY-HEAD                     ALL TIMES    "  1  12"                                  case2.csub.obs.csv                                                              
 H0013                                    CONTINUOUS  DELAY-HEAD                     ALL TIMES    "  1  13"                                  case2.csub.obs.csv                                                              
 H0014                                    CONTINUOUS  DELAY-HEAD                     ALL TIMES    "  1  14"                                  case2.csub.obs.csv                                                              
 H0015                                    CONTINUOUS  DELAY-HEAD                     ALL TIMES    "  1  15"                                  case2.csub.obs.csv                                                              
 H0016                                    CONTINUOUS  DELAY-HEAD                     ALL TIMES    "  1  16"                                  case2.csub.obs.csv                                                              
 H0017                                    CONTINUOUS  DELAY-HEAD                     ALL TIMES    "  1  17"                                  case2.csub.obs.csv                                                              
 H0018                                    CONTINUOUS  DELAY-HEAD                     ALL TIMES    "  1  18"                                  case2.csub.obs.csv                                                              
 H0019                                    CONTINUOUS  DELAY-HEAD                     ALL TIMES    "  1  19"                                  case2.csub.obs.csv                                                              
 H0020                                    CONTINUOUS  DELAY-HEAD                     ALL TIMES    "  1  20"                                  case2.csub.obs.csv                                                              
 H0021                                    CONTINUOUS  DELAY-HEAD                     ALL TIMES    "  1  21"                                  case2.csub.obs.csv                                                              
 H0022                                    CONTINUOUS  DELAY-HEAD                     ALL TIMES    "  1  22"                                  case2.csub.obs.csv                                                              
 H0023                                    CONTINUOUS  DELAY-HEAD                     ALL TIMES    "  1  23"                                  case2.csub.obs.csv                                                              
 H0024                                    CONTINUOUS  DELAY-HEAD                     ALL TIMES    "  1  24"                                  case2.csub.obs.csv                                                              
 H0025                                    CONTINUOUS  DELAY-HEAD                     ALL TIMES    "  1  25"                                  case2.csub.obs.csv                                                              
 H0026                                    CONTINUOUS  DELAY-HEAD                     ALL TIMES    "  1  26"                                  case2.csub.obs.csv                                                              
 H0027                                    CONTINUOUS  DELAY-HEAD                     ALL TIMES    "  1  27"                                  case2.csub.obs.csv                                                              
 H0028                                    CONTINUOUS  DELAY-HEAD                     ALL TIMES    "  1  28"                                  case2.csub.obs.csv                                                              
 H0029                                    CONTINUOUS  DELAY-HEAD                     ALL TIMES    "  1  29"                                  case2.csub.obs.csv                                                              
 H0030                                    CONTINUOUS  DELAY-HEAD                     ALL TIMES    "  1  30"                                  case2.csub.obs.csv                                                              
 H0031                                    CONTINUOUS  DELAY-HEAD                     ALL TIMES    "  1  31"                                  case2.csub.obs.csv                                                              
 H0032                                    CONTINUOUS  DELAY-HEAD                     ALL TIMES    "  1  32"                                  case2.csub.obs.csv                                                              
 H0033                                    CONTINUOUS  DELAY-HEAD                     ALL TIMES    "  1  33"                                  case2.csub.obs.csv                                                              
 H0034                                    CONTINUOUS  DELAY-HEAD                     ALL TIMES    "  1  34"                                  case2.csub.obs.csv                                                              
 H0035                                    CONTINUOUS  DELAY-HEAD                     ALL TIMES    "  1  35"                                  case2.csub.obs.csv                                                              
 H0036                                    CONTINUOUS  DELAY-HEAD                     ALL TIMES    "  1  36"                                  case2.csub.obs.csv                                                              
 H0037                                    CONTINUOUS  DELAY-HEAD                     ALL TIMES    "  1  37"                                  case2.csub.obs.csv                                                              
 H0038                                    CONTINUOUS  DELAY-HEAD                     ALL TIMES    "  1  38"                                  case2.csub.obs.csv                                                              
 H0039                                    CONTINUOUS  DELAY-HEAD                     ALL TIMES    "  1  39"                                  case2.csub.obs.csv                                                              
 H0040                                    CONTINUOUS  DELAY-HEAD                     ALL TIMES    "  1  40"                                  case2.csub.obs.csv                                                              
 H0041                                    CONTINUOUS  DELAY-HEAD                     ALL TIMES    "  1  41"                                  case2.csub.obs.csv                                                              
 H0042                                    CONTINUOUS  DELAY-HEAD                     ALL TIMES    "  1  42"                                  case2.csub.obs.csv                                                              
 H0043                                    CONTINUOUS  DELAY-HEAD                     ALL TIMES    "  1  43"                                  case2.csub.obs.csv                                                              
 H0044                                    CONTINUOUS  DELAY-HEAD                     ALL TIMES    "  1  44"                                  case2.csub.obs.csv                                                              
 H0045                                    CONTINUOUS  DELAY-HEAD                     ALL TIMES    "  1  45"                                  case2.csub.obs.csv                                                              
 H0046                                    CONTINUOUS  DELAY-HEAD                     ALL TIMES    "  1  46"                                  case2.csub.obs.csv                                                              
 H0047                                    CONTINUOUS  DELAY-HEAD                     ALL TIMES    "  1  47"                                  case2.csub.obs.csv                                                              
 H0048                                    CONTINUOUS  DELAY-HEAD                     ALL TIMES    "  1  48"                                  case2.csub.obs.csv                                                              
 H0049                                    CONTINUOUS  DELAY-HEAD                     ALL TIMES    "  1  49"                                  case2.csub.obs.csv                                                              
 H0050                                    CONTINUOUS  DELAY-HEAD                     ALL TIMES    "  1  50"                                  case2.csub.obs.csv                                                              
 H0051                                    CONTINUOUS  DELAY-HEAD                     ALL TIMES    "  1  51"                                  case2.csub.obs.csv                                                              
 H0052                                    CONTINUOUS  DELAY-HEAD                     ALL TIMES    "  1  52"                                  case2.csub.obs.csv                                                              
 H0053                                    CONTINUOUS  DELAY-HEAD                     ALL TIMES    "  1  53"                                  case2.csub.obs.csv                                                              
 H0054                                    CONTINUOUS  DELAY-HEAD                     ALL TIMES    "  1  54"                                  case2.csub.obs.csv                                                              
 H0055                                    CONTINUOUS  DELAY-HEAD                     ALL TIMES    "  1  55"                                  case2.csub.obs.csv                                                              
 H0056                                    CONTINUOUS  DELAY-HEAD                     ALL TIMES    "  1  56"                                  case2.csub.obs.csv                                                              
 H0057                                    CONTINUOUS  DELAY-HEAD                     ALL TIMES    "  1  57"                                  case2.csub.obs.csv                                                              
 H0058                                    CONTINUOUS  DELAY-HEAD                     ALL TIMES    "  1  58"                                  case2.csub.obs.csv                                                              
 H0059                                    CONTINUOUS  DELAY-HEAD                     ALL TIMES    "  1  59"                                  case2.csub.obs.csv                                                              
 H0060                                    CONTINUOUS  DELAY-HEAD                     ALL TIMES    "  1  60"                                  case2.csub.obs.csv                                                              
 H0061                                    CONTINUOUS  DELAY-HEAD                     ALL TIMES    "  1  61"                                  case2.csub.obs.csv                                                              
 H0062                                    CONTINUOUS  DELAY-HEAD                     ALL TIMES    "  1  62"                                  case2.csub.obs.csv                                                              
 H0063                                    CONTINUOUS  DELAY-HEAD                     ALL TIMES    "  1  63"                                  case2.csub.obs.csv                                                              
 H0064                                    CONTINUOUS  DELAY-HEAD                     ALL TIMES    "  1  64"                                  case2.csub.obs.csv                                                              
 H0065                                    CONTINUOUS  DELAY-HEAD                     ALL TIMES    "  1  65"                                  case2.csub.obs.csv                                                              
 H0066                                    CONTINUOUS  DELAY-HEAD                     ALL TIMES    "  1  66"                                  case2.csub.obs.csv                                                              
 H0067                                    CONTINUOUS  DELAY-HEAD                     ALL TIMES    "  1  67"                                  case2.csub.obs.csv                                                              
 H0068                                    CONTINUOUS  DELAY-HEAD                     ALL TIMES    "  1  68"                                  case2.csub.obs.csv                                                              
 H0069                                    CONTINUOUS  DELAY-HEAD                     ALL TIMES    "  1  69"                                  case2.csub.obs.csv                                                              
 H0070                                    CONTINUOUS  DELAY-HEAD                     ALL TIMES    "  1  70"                                  case2.csub.obs.csv                                                              
 H0071                                    CONTINUOUS  DELAY-HEAD                     ALL TIMES    "  1  71"                                  case2.csub.obs.csv                                                              
 H0072                                    CONTINUOUS  DELAY-HEAD                     ALL TIMES    "  1  72"                                  case2.csub.obs.csv                                                              
 H0073                                    CONTINUOUS  DELAY-HEAD                     ALL TIMES    "  1  73"                                  case2.csub.obs.csv                                                              
 H0074                                    CONTINUOUS  DELAY-HEAD                     ALL TIMES    "  1  74"                                  case2.csub.obs.csv                                                              
 H0075                                    CONTINUOUS  DELAY-HEAD                     ALL TIMES    "  1  75"                                  case2.csub.obs.csv                                                              
 H0076                                    CONTINUOUS  DELAY-HEAD                     ALL TIMES    "  1  76"                                  case2.csub.obs.csv                                                              
 H0077                                    CONTINUOUS  DELAY-HEAD                     ALL TIMES    "  1  77"                                  case2.csub.obs.csv                                                              
 H0078                                    CONTINUOUS  DELAY-HEAD                     ALL TIMES    "  1  78"                                  case2.csub.obs.csv                                                              
 H0079                                    CONTINUOUS  DELAY-HEAD                     ALL TIMES    "  1  79"                                  case2.csub.obs.csv                                                              
 H0080                                    CONTINUOUS  DELAY-HEAD                     ALL TIMES    "  1  80"                                  case2.csub.obs.csv                                                              
 H0081                                    CONTINUOUS  DELAY-HEAD                     ALL TIMES    "  1  81"                                  case2.csub.obs.csv                                                              
 H0082                                    CONTINUOUS  DELAY-HEAD                     ALL TIMES    "  1  82"                                  case2.csub.obs.csv                                                              
 H0083                                    CONTINUOUS  DELAY-HEAD                     ALL TIMES    "  1  83"                                  case2.csub.obs.csv                                                              
 H0084                                    CONTINUOUS  DELAY-HEAD                     ALL TIMES    "  1  84"                                  case2.csub.obs.csv                                                              
 H0085                                    CONTINUOUS  DELAY-HEAD                     ALL TIMES    "  1  85"                                  case2.csub.obs.csv                                                              
 H0086                                    CONTINUOUS  DELAY-HEAD                     ALL TIMES    "  1  86"                                  case2.csub.obs.csv                                                              
 H0087                                    CONTINUOUS  DELAY-HEAD                     ALL TIMES    "  1  87"                                  case2.csub.obs.csv                                                              
 H0088                                    CONTINUOUS  DELAY-HEAD                     ALL TIMES    "  1  88"                                  case2.csub.obs.csv                                                              
 H0089                                    CONTINUOUS  DELAY-HEAD                     ALL TIMES    "  1  89"                                  case2.csub.obs.csv                                                              
 H0090                                    CONTINUOUS  DELAY-HEAD                     ALL TIMES    "  1  90"                                  case2.csub.obs.csv                                                              
 H0091                                    CONTINUOUS  DELAY-HEAD                     ALL TIMES    "  1  91"                                  case2.csub.obs.csv                                                              
 H0092                                    CONTINUOUS  DELAY-HEAD                     ALL TIMES    "  1  92"                                  case2.csub.obs.csv                                                              
 H0093                                    CONTINUOUS  DELAY-HEAD                     ALL TIMES    "  1  93"                                  case2.csub.obs.csv                                                              
 H0094                                    CONTINUOUS  DELAY-HEAD                     ALL TIMES    "  1  94"                                  case2.csub.obs.csv                                                              
 H0095                                    CONTINUOUS  DELAY-HEAD                     ALL TIMES    "  1  95"                                  case2.csub.obs.csv                                                              
 H0096                                    CONTINUOUS  DELAY-HEAD                     ALL TIMES    "  1  96"                                  case2.csub.obs.csv                                                              
 H0097                                    CONTINUOUS  DELAY-HEAD                     ALL TIMES    "  1  97"                                  case2.csub.obs.csv                                                              
 H0098                                    CONTINUOUS  DELAY-HEAD                     ALL TIMES    "  1  98"                                  case2.csub.obs.csv                                                              
 H0099                                    CONTINUOUS  DELAY-HEAD                     ALL TIMES    "  1  99"                                  case2.csub.obs.csv                                                              
 H0100                                    CONTINUOUS  DELAY-HEAD                     ALL TIMES    "  1  100"                                 case2.csub.obs.csv                                                              
 H0101                                    CONTINUOUS  DELAY-HEAD                     ALL TIMES    "  1  101"                                 case2.csub.obs.csv                                                              
 H0102                                    CONTINUOUS  DELAY-HEAD                     ALL TIMES    "  1  102"                                 case2.csub.obs.csv                                                              
 H0103                                    CONTINUOUS  DELAY-HEAD                     ALL TIMES    "  1  103"                                 case2.csub.obs.csv                                                              
 H0104                                    CONTINUOUS  DELAY-HEAD                     ALL TIMES    "  1  104"                                 case2.csub.obs.csv                                                              
 H0105                                    CONTINUOUS  DELAY-HEAD                     ALL TIMES    "  1  105"                                 case2.csub.obs.csv                                                              
 H0106                                    CONTINUOUS  DELAY-HEAD                     ALL TIMES    "  1  106"                                 case2.csub.obs.csv                                                              
 H0107                                    CONTINUOUS  DELAY-HEAD                     ALL TIMES    "  1  107"                                 case2.csub.obs.csv                                                              
 H0108                                    CONTINUOUS  DELAY-HEAD                     ALL TIMES    "  1  108"                                 case2.csub.obs.csv                                                              
 H0109                                    CONTINUOUS  DELAY-HEAD                     ALL TIMES    "  1  109"                                 case2.csub.obs.csv                                                              
 H0110                                    CONTINUOUS  DELAY-HEAD                     ALL TIMES    "  1  110"                                 case2.csub.obs.csv                                                              
 H0111                                    CONTINUOUS  DELAY-HEAD                     ALL TIMES    "  1  111"                                 case2.csub.obs.csv                                                              
 H0112                                    CONTINUOUS  DELAY-HEAD                     ALL TIMES    "  1  112"                                 case2.csub.obs.csv                                                              
 H0113                                    CONTINUOUS  DELAY-HEAD                     ALL TIMES    "  1  113"                                 case2.csub.obs.csv                                                              
 H0114                                    CONTINUOUS  DELAY-HEAD                     ALL TIMES    "  1  114"                                 case2.csub.obs.csv                                                              
 H0115                                    CONTINUOUS  DELAY-HEAD                     ALL TIMES    "  1  115"                                 case2.csub.obs.csv                                                              
 H0116                                    CONTINUOUS  DELAY-HEAD                     ALL TIMES    "  1  116"                                 case2.csub.obs.csv                                                              
 H0117                                    CONTINUOUS  DELAY-HEAD                     ALL TIMES    "  1  117"                                 case2.csub.obs.csv                                                              
 H0118                                    CONTINUOUS  DELAY-HEAD                     ALL TIMES    "  1  118"                                 case2.csub.obs.csv                                                              
 H0119                                    CONTINUOUS  DELAY-HEAD                     ALL TIMES    "  1  119"                                 case2.csub.obs.csv                                                              
 H0120                                    CONTINUOUS  DELAY-HEAD                     ALL TIMES    "  1  120"                                 case2.csub.obs.csv                                                              
 H0121                                    CONTINUOUS  DELAY-HEAD                     ALL TIMES    "  1  121"                                 case2.csub.obs.csv                                                              
 H0122                                    CONTINUOUS  DELAY-HEAD                     ALL TIMES    "  1  122"                                 case2.csub.obs.csv                                                              
 H0123                                    CONTINUOUS  DELAY-HEAD                     ALL TIMES    "  1  123"                                 case2.csub.obs.csv                                                              
 H0124                                    CONTINUOUS  DELAY-HEAD                     ALL TIMES    "  1  124"                                 case2.csub.obs.csv                                                              
 H0125                                    CONTINUOUS  DELAY-HEAD                     ALL TIMES    "  1  125"                                 case2.csub.obs.csv                                                              
 H0126                                    CONTINUOUS  DELAY-HEAD                     ALL TIMES    "  1  126"                                 case2.csub.obs.csv                                                              
 H0127                                    CONTINUOUS  DELAY-HEAD                     ALL TIMES    "  1  127"                                 case2.csub.obs.csv                                                              
 H0128                                    CONTINUOUS  DELAY-HEAD                     ALL TIMES    "  1  128"                                 case2.csub.obs.csv                                                              
 H0129                                    CONTINUOUS  DELAY-HEAD                     ALL TIMES    "  1  129"                                 case2.csub.obs.csv                                                              
 H0130                                    CONTINUOUS  DELAY-HEAD                     ALL TIMES    "  1  130"                                 case2.csub.obs.csv                                                              
 H0131                                    CONTINUOUS  DELAY-HEAD                     ALL TIMES    "  1  131"                                 case2.csub.obs.csv                                                              
 H0132                                    CONTINUOUS  DELAY-HEAD                     ALL TIMES    "  1  132"                                 case2.csub.obs.csv                                                              
 H0133                                    CONTINUOUS  DELAY-HEAD                     ALL TIMES    "  1  133"                                 case2.csub.obs.csv                                                              
 H0134                                    CONTINUOUS  DELAY-HEAD                     ALL TIMES    "  1  134"                                 case2.csub.obs.csv                                                              
 H0135                                    CONTINUOUS  DELAY-HEAD                     ALL TIMES    "  1  135"                                 case2.csub.obs.csv                                                              
 H0136                                    CONTINUOUS  DELAY-HEAD                     ALL TIMES    "  1  136"                                 case2.csub.obs.csv                                                              
 H0137                                    CONTINUOUS  DELAY-HEAD                     ALL TIMES    "  1  137"                                 case2.csub.obs.csv                                                              
 H0138                                    CONTINUOUS  DELAY-HEAD                     ALL TIMES    "  1  138"                                 case2.csub.obs.csv                                                              
 H0139                                    CONTINUOUS  DELAY-HEAD                     ALL TIMES    "  1  139"                                 case2.csub.obs.csv                                                              
 H0140                                    CONTINUOUS  DELAY-HEAD                     ALL TIMES    "  1  140"                                 case2.csub.obs.csv                                                              
 H0141                                    CONTINUOUS  DELAY-HEAD                     ALL TIMES    "  1  141"                                 case2.csub.obs.csv                                                              
 H0142                                    CONTINUOUS  DELAY-HEAD                     ALL TIMES    "  1  142"                                 case2.csub.obs.csv                                                              
 H0143                                    CONTINUOUS  DELAY-HEAD                     ALL TIMES    "  1  143"                                 case2.csub.obs.csv                                                              
 H0144                                    CONTINUOUS  DELAY-HEAD                     ALL TIMES    "  1  144"                                 case2.csub.obs.csv                                                              
 H0145                                    CONTINUOUS  DELAY-HEAD                     ALL TIMES    "  1  145"                                 case2.csub.obs.csv                                                              
 H0146                                    CONTINUOUS  DELAY-HEAD                     ALL TIMES    "  1  146"                                 case2.csub.obs.csv                                                              
 H0147                                    CONTINUOUS  DELAY-HEAD                     ALL TIMES    "  1  147"                                 case2.csub.obs.csv                                                              
 H0148                                    CONTINUOUS  DELAY-HEAD                     ALL TIMES    "  1  148"                                 case2.csub.obs.csv                                                              
 H0149                                    CONTINUOUS  DELAY-HEAD                     ALL TIMES    "  1  149"                                 case2.csub.obs.csv                                                              
 H0150                                    CONTINUOUS  DELAY-HEAD                     ALL TIMES    "  1  150"                                 case2.csub.obs.csv                                                              
 H0151                                    CONTINUOUS  DELAY-HEAD                     ALL TIMES    "  1  151"                                 case2.csub.obs.csv                                                              
 H0152                                    CONTINUOUS  DELAY-HEAD                     ALL TIMES    "  1  152"                                 case2.csub.obs.csv                                                              
 H0153                                    CONTINUOUS  DELAY-HEAD                     ALL TIMES    "  1  153"                                 case2.csub.obs.csv                                                              
 H0154                                    CONTINUOUS  DELAY-HEAD                     ALL TIMES    "  1  154"                                 case2.csub.obs.csv                                                              
 H0155                                    CONTINUOUS  DELAY-HEAD                     ALL TIMES    "  1  155"                                 case2.csub.obs.csv                                                              
 H0156                                    CONTINUOUS  DELAY-HEAD                     ALL TIMES    "  1  156"                                 case2.csub.obs.csv                                                              
 H0157                                    CONTINUOUS  DELAY-HEAD                     ALL TIMES    "  1  157"                                 case2.csub.obs.csv                                                              
 H0158                                    CONTINUOUS  DELAY-HEAD                     ALL TIMES    "  1  158"                                 case2.csub.obs.csv                                                              
 H0159                                    CONTINUOUS  DELAY-HEAD                     ALL TIMES    "  1  159"                                 case2.csub.obs.csv                                                              
 H0160                                    CONTINUOUS  DELAY-HEAD                     ALL TIMES    "  1  160"                                 case2.csub.obs.csv                                                              
 H0161                                    CONTINUOUS  DELAY-HEAD                     ALL TIMES    "  1  161"                                 case2.csub.obs.csv                                                              
 H0162                                    CONTINUOUS  DELAY-HEAD                     ALL TIMES    "  1  162"                                 case2.csub.obs.csv                                                              
 H0163                                    CONTINUOUS  DELAY-HEAD                     ALL TIMES    "  1  163"                                 case2.csub.obs.csv                                                              
 H0164                                    CONTINUOUS  DELAY-HEAD                     ALL TIMES    "  1  164"                                 case2.csub.obs.csv                                                              
 H0165                                    CONTINUOUS  DELAY-HEAD                     ALL TIMES    "  1  165"                                 case2.csub.obs.csv                                                              
 H0166                                    CONTINUOUS  DELAY-HEAD                     ALL TIMES    "  1  166"                                 case2.csub.obs.csv                                                              
 H0167                                    CONTINUOUS  DELAY-HEAD                     ALL TIMES    "  1  167"                                 case2.csub.obs.csv                                                              
 H0168                                    CONTINUOUS  DELAY-HEAD                     ALL TIMES    "  1  168"                                 case2.csub.obs.csv                                                              
 H0169                                    CONTINUOUS  DELAY-HEAD                     ALL TIMES    "  1  169"                                 case2.csub.obs.csv                                                              
 H0170                                    CONTINUOUS  DELAY-HEAD                     ALL TIMES    "  1  170"                                 case2.csub.obs.csv                                                              
 H0171                                    CONTINUOUS  DELAY-HEAD                     ALL TIMES    "  1  171"                                 case2.csub.obs.csv                                                              
 H0172                                    CONTINUOUS  DELAY-HEAD                     ALL TIMES    "  1  172"                                 case2.csub.obs.csv                                                              
 H0173                                    CONTINUOUS  DELAY-HEAD                     ALL TIMES    "  1  173"                                 case2.csub.obs.csv                                                              
 H0174                                    CONTINUOUS  DELAY-HEAD                     ALL TIMES    "  1  174"                                 case2.csub.obs.csv                                                              
 H0175                                    CONTINUOUS  DELAY-HEAD                     ALL TIMES    "  1  175"                                 case2.csub.obs.csv                                                              
 H0176                                    CONTINUOUS  DELAY-HEAD                     ALL TIMES    "  1  176"                                 case2.csub.obs.csv                                                              
 H0177                                    CONTINUOUS  DELAY-HEAD                     ALL TIMES    "  1  177"                                 case2.csub.obs.csv                                                              
 H0178                                    CONTINUOUS  DELAY-HEAD                     ALL TIMES    "  1  178"                                 case2.csub.obs.csv                                                              
 H0179                                    CONTINUOUS  DELAY-HEAD                     ALL TIMES    "  1  179"                                 case2.csub.obs.csv                                                              
 H0180                                    CONTINUOUS  DELAY-HEAD                     ALL TIMES    "  1  180"                                 case2.csub.obs.csv                                                              
 H0181                                    CONTINUOUS  DELAY-HEAD                     ALL TIMES    "  1  181"                                 case2.csub.obs.csv                                                              
 H0182                                    CONTINUOUS  DELAY-HEAD                     ALL TIMES    "  1  182"                                 case2.csub.obs.csv                                                              
 H0183                                    CONTINUOUS  DELAY-HEAD                     ALL TIMES    "  1  183"                                 case2.csub.obs.csv                                                              
 H0184                                    CONTINUOUS  DELAY-HEAD                     ALL TIMES    "  1  184"                                 case2.csub.obs.csv                                                              
 H0185                                    CONTINUOUS  DELAY-HEAD                     ALL TIMES    "  1  185"                                 case2.csub.obs.csv                                                              
 H0186                                    CONTINUOUS  DELAY-HEAD                     ALL TIMES    "  1  186"                                 case2.csub.obs.csv                                                              
 H0187                                    CONTINUOUS  DELAY-HEAD                     ALL TIMES    "  1  187"                                 case2.csub.obs.csv                                                              
 H0188                                    CONTINUOUS  DELAY-HEAD                     ALL TIMES    "  1  188"                                 case2.csub.obs.csv                                                              
 H0189                                    CONTINUOUS  DELAY-HEAD                     ALL TIMES    "  1  189"                                 case2.csub.obs.csv                                                              
 H0190                                    CONTINUOUS  DELAY-HEAD                     ALL TIMES    "  1  190"                                 case2.csub.obs.csv                                                              
 H0191                                    CONTINUOUS  DELAY-HEAD                     ALL TIMES    "  1  191"                                 case2.csub.obs.csv                                                              
 H0192                                    CONTINUOUS  DELAY-HEAD                     ALL TIMES    "  1  192"                                 case2.csub.obs.csv                                                              
 H0193                                    CONTINUOUS  DELAY-HEAD                     ALL TIMES    "  1  193"                                 case2.csub.obs.csv                                                              
 H0194                                    CONTINUOUS  DELAY-HEAD                     ALL TIMES    "  1  194"                                 case2.csub.obs.csv                                                              
 H0195                                    CONTINUOUS  DELAY-HEAD                     ALL TIMES    "  1  195"                                 case2.csub.obs.csv                                                              
 H0196                                    CONTINUOUS  DELAY-HEAD                     ALL TIMES    "  1  196"                                 case2.csub.obs.csv                                                              
 H0197                                    CONTINUOUS  DELAY-HEAD                     ALL TIMES    "  1  197"                                 case2.csub.obs.csv                                                              
 H0198                                    CONTINUOUS  DELAY-HEAD                     ALL TIMES    "  1  198"                                 case2.csub.obs.csv                                                              
 H0199                                    CONTINUOUS  DELAY-HEAD                     ALL TIMES    "  1  199"                                 case2.csub.obs.csv                                                              
 H0200                                    CONTINUOUS  DELAY-HEAD                     ALL TIMES    "  1  200"                                 case2.csub.obs.csv                                                              
 H0201                                    CONTINUOUS  DELAY-HEAD                     ALL TIMES    "  1  201"                                 case2.csub.obs.csv                                                              
 H0202                                    CONTINUOUS  DELAY-HEAD                     ALL TIMES    "  1  202"                                 case2.csub.obs.csv                                                              
 H0203                                    CONTINUOUS  DELAY-HEAD                     ALL TIMES    "  1  203"                                 case2.csub.obs.csv                                                              
 H0204                                    CONTINUOUS  DELAY-HEAD                     ALL TIMES    "  1  204"                                 case2.csub.obs.csv                                                              
 H0205                                    CONTINUOUS  DELAY-HEAD                     ALL TIMES    "  1  205"                                 case2.csub.obs.csv                                                              
 H0206                                    CONTINUOUS  DELAY-HEAD                     ALL TIMES    "  1  206"                                 case2.csub.obs.csv                                                              
 H0207                                    CONTINUOUS  DELAY-HEAD                     ALL TIMES    "  1  207"                                 case2.csub.obs.csv                                                              
 H0208                                    CONTINUOUS  DELAY-HEAD                     ALL TIMES    "  1  208"                                 case2.csub.obs.csv                                                              
 H0209                                    CONTINUOUS  DELAY-HEAD                     ALL TIMES    "  1  209"                                 case2.csub.obs.csv                                                              
 H0210                                    CONTINUOUS  DELAY-HEAD                     ALL TIMES    "  1  210"                                 case2.csub.obs.csv                                                              
 H0211                                    CONTINUOUS  DELAY-HEAD                     ALL TIMES    "  1  211"                                 case2.csub.obs.csv                                                              
 H0212                                    CONTINUOUS  DELAY-HEAD                     ALL TIMES    "  1  212"                                 case2.csub.obs.csv                                                              
 H0213                                    CONTINUOUS  DELAY-HEAD                     ALL TIMES    "  1  213"                                 case2.csub.obs.csv                                                              
 H0214                                    CONTINUOUS  DELAY-HEAD                     ALL TIMES    "  1  214"                                 case2.csub.obs.csv                                                              
 H0215                                    CONTINUOUS  DELAY-HEAD                     ALL TIMES    "  1  215"                                 case2.csub.obs.csv                                                              
 H0216                                    CONTINUOUS  DELAY-HEAD                     ALL TIMES    "  1  216"                                 case2.csub.obs.csv                                                              
 H0217                                    CONTINUOUS  DELAY-HEAD                     ALL TIMES    "  1  217"                                 case2.csub.obs.csv                                                              
 H0218                                    CONTINUOUS  DELAY-HEAD                     ALL TIMES    "  1  218"                                 case2.csub.obs.csv                                                              
 H0219                                    CONTINUOUS  DELAY-HEAD                     ALL TIMES    "  1  219"                                 case2.csub.obs.csv                                                              
 H0220                                    CONTINUOUS  DELAY-HEAD                     ALL TIMES    "  1  220"                                 case2.csub.obs.csv                                                              
 H0221                                    CONTINUOUS  DELAY-HEAD                     ALL TIMES    "  1  221"                                 case2.csub.obs.csv                                                              
 H0222                                    CONTINUOUS  DELAY-HEAD                     ALL TIMES    "  1  222"                                 case2.csub.obs.csv                                                              
 H0223                                    CONTINUOUS  DELAY-HEAD                     ALL TIMES    "  1  223"                                 case2.csub.obs.csv                                                              
 H0224                                    CONTINUOUS  DELAY-HEAD                     ALL TIMES    "  1  224"                                 case2.csub.obs.csv                                                              
 H0225                                    CONTINUOUS  DELAY-HEAD                     ALL TIMES    "  1  225"                                 case2.csub.obs.csv                                                              
 H0226                                    CONTINUOUS  DELAY-HEAD                     ALL TIMES    "  1  226"                                 case2.csub.obs.csv                                                              
 H0227                                    CONTINUOUS  DELAY-HEAD                     ALL TIMES    "  1  227"                                 case2.csub.obs.csv                                                              
 H0228                                    CONTINUOUS  DELAY-HEAD                     ALL TIMES    "  1  228"                                 case2.csub.obs.csv                                                              
 H0229                                    CONTINUOUS  DELAY-HEAD                     ALL TIMES    "  1  229"                                 case2.csub.obs.csv                                                              
 H0230                                    CONTINUOUS  DELAY-HEAD                     ALL TIMES    "  1  230"                                 case2.csub.obs.csv                                                              
 H0231                                    CONTINUOUS  DELAY-HEAD                     ALL TIMES    "  1  231"                                 case2.csub.obs.csv                                                              
 H0232                                    CONTINUOUS  DELAY-HEAD                     ALL TIMES    "  1  232"                                 case2.csub.obs.csv                                                              
 H0233                                    CONTINUOUS  DELAY-HEAD                     ALL TIMES    "  1  233"                                 case2.csub.obs.csv                                                              
 H0234                                    CONTINUOUS  DELAY-HEAD                     ALL TIMES    "  1  234"                                 case2.csub.obs.csv                                                              
 H0235                                    CONTINUOUS  DELAY-HEAD                     ALL TIMES    "  1  235"                                 case2.csub.obs.csv                                                              
 H0236                                    CONTINUOUS  DELAY-HEAD                     ALL TIMES    "  1  236"                                 case2.csub.obs.csv                                                              
 H0237                                    CONTINUOUS  DELAY-HEAD                     ALL TIMES    "  1  237"                                 case2.csub.obs.csv                                                              
 H0238                                    CONTINUOUS  DELAY-HEAD                     ALL TIMES    "  1  238"                                 case2.csub.obs.csv                                                              
 H0239                                    CONTINUOUS  DELAY-HEAD                     ALL TIMES    "  1  239"                                 case2.csub.obs.csv                                                              
 H0240                                    CONTINUOUS  DELAY-HEAD                     ALL TIMES    "  1  240"                                 case2.csub.obs.csv                                                              
 H0241                                    CONTINUOUS  DELAY-HEAD                     ALL TIMES    "  1  241"                                 case2.csub.obs.csv                                                              
 H0242                                    CONTINUOUS  DELAY-HEAD                     ALL TIMES    "  1  242"                                 case2.csub.obs.csv                                                              
 H0243                                    CONTINUOUS  DELAY-HEAD                     ALL TIMES    "  1  243"                                 case2.csub.obs.csv                                                              
 H0244                                    CONTINUOUS  DELAY-HEAD                     ALL TIMES    "  1  244"                                 case2.csub.obs.csv                                                              
 H0245                                    CONTINUOUS  DELAY-HEAD                     ALL TIMES    "  1  245"                                 case2.csub.obs.csv                                                              
 H0246                                    CONTINUOUS  DELAY-HEAD                     ALL TIMES    "  1  246"                                 case2.csub.obs.csv                                                              
 H0247                                    CONTINUOUS  DELAY-HEAD                     ALL TIMES    "  1  247"                                 case2.csub.obs.csv                                                              
 H0248                                    CONTINUOUS  DELAY-HEAD                     ALL TIMES    "  1  248"                                 case2.csub.obs.csv                                                              
 H0249                                    CONTINUOUS  DELAY-HEAD                     ALL TIMES    "  1  249"                                 case2.csub.obs.csv                                                              
 H0250                                    CONTINUOUS  DELAY-HEAD                     ALL TIMES    "  1  250"                                 case2.csub.obs.csv                                                              
 H0251                                    CONTINUOUS  DELAY-HEAD                     ALL TIMES    "  1  251"                                 case2.csub.obs.csv                                                              
 H0252                                    CONTINUOUS  DELAY-HEAD                     ALL TIMES    "  1  252"                                 case2.csub.obs.csv                                                              
 H0253                                    CONTINUOUS  DELAY-HEAD                     ALL TIMES    "  1  253"                                 case2.csub.obs.csv                                                              
 H0254                                    CONTINUOUS  DELAY-HEAD                     ALL TIMES    "  1  254"                                 case2.csub.obs.csv                                                              
 H0255                                    CONTINUOUS  DELAY-HEAD                     ALL TIMES    "  1  255"                                 case2.csub.obs.csv                                                              
 H0256                                    CONTINUOUS  DELAY-HEAD                     ALL TIMES    "  1  256"                                 case2.csub.obs.csv                                                              
 H0257                                    CONTINUOUS  DELAY-HEAD                     ALL TIMES    "  1  257"                                 case2.csub.obs.csv                                                              
 H0258                                    CONTINUOUS  DELAY-HEAD                     ALL TIMES    "  1  258"                                 case2.csub.obs.csv                                                              
 H0259                                    CONTINUOUS  DELAY-HEAD                     ALL TIMES    "  1  259"                                 case2.csub.obs.csv                                                              
 H0260                                    CONTINUOUS  DELAY-HEAD                     ALL TIMES    "  1  260"                                 case2.csub.obs.csv                                                              
 H0261                                    CONTINUOUS  DELAY-HEAD                     ALL TIMES    "  1  261"                                 case2.csub.obs.csv                                                              
 H0262                                    CONTINUOUS  DELAY-HEAD                     ALL TIMES    "  1  262"                                 case2.csub.obs.csv                                                              
 H0263                                    CONTINUOUS  DELAY-HEAD                     ALL TIMES    "  1  263"                                 case2.csub.obs.csv                                                              
 H0264                                    CONTINUOUS  DELAY-HEAD                     ALL TIMES    "  1  264"                                 case2.csub.obs.csv                                                              
 H0265                                    CONTINUOUS  DELAY-HEAD                     ALL TIMES    "  1  265"                                 case2.csub.obs.csv                                                              
 H0266                                    CONTINUOUS  DELAY-HEAD                     ALL TIMES    "  1  266"                                 case2.csub.obs.csv                                                              
 H0267                                    CONTINUOUS  DELAY-HEAD                     ALL TIMES    "  1  267"                                 case2.csub.obs.csv                                                              
 H0268                                    CONTINUOUS  DELAY-HEAD                     ALL TIMES    "  1  268"                                 case2.csub.obs.csv                                                              
 H0269                                    CONTINUOUS  DELAY-HEAD                     ALL TIMES    "  1  269"                                 case2.csub.obs.csv                                                              
 H0270                                    CONTINUOUS  DELAY-HEAD                     ALL TIMES    "  1  270"                                 case2.csub.obs.csv                                                              
 H0271                                    CONTINUOUS  DELAY-HEAD                     ALL TIMES    "  1  271"                                 case2.csub.obs.csv                                                              
 H0272                                    CONTINUOUS  DELAY-HEAD                     ALL TIMES    "  1  272"                                 case2.csub.obs.csv                                                              
 H0273                                    CONTINUOUS  DELAY-HEAD                     ALL TIMES    "  1  273"                                 case2.csub.obs.csv                                                              
 H0274                                    CONTINUOUS  DELAY-HEAD                     ALL TIMES    "  1  274"                                 case2.csub.obs.csv                                                              
 H0275                                    CONTINUOUS  DELAY-HEAD                     ALL TIMES    "  1  275"                                 case2.csub.obs.csv                                                              
 H0276                                    CONTINUOUS  DELAY-HEAD                     ALL TIMES    "  1  276"                                 case2.csub.obs.csv                                                              
 H0277                                    CONTINUOUS  DELAY-HEAD                     ALL TIMES    "  1  277"                                 case2.csub.obs.csv                                                              
 H0278                                    CONTINUOUS  DELAY-HEAD                     ALL TIMES    "  1  278"                                 case2.csub.obs.csv                                                              
 H0279                                    CONTINUOUS  DELAY-HEAD                     ALL TIMES    "  1  279"                                 case2.csub.obs.csv                                                              
 H0280                                    CONTINUOUS  DELAY-HEAD                     ALL TIMES    "  1  280"                                 case2.csub.obs.csv                                                              
 H0281                                    CONTINUOUS  DELAY-HEAD                     ALL TIMES    "  1  281"                                 case2.csub.obs.csv                                                              
 H0282                                    CONTINUOUS  DELAY-HEAD                     ALL TIMES    "  1  282"                                 case2.csub.obs.csv                                                              
 H0283                                    CONTINUOUS  DELAY-HEAD                     ALL TIMES    "  1  283"                                 case2.csub.obs.csv                                                              
 H0284                                    CONTINUOUS  DELAY-HEAD                     ALL TIMES    "  1  284"                                 case2.csub.obs.csv                                                              
 H0285                                    CONTINUOUS  DELAY-HEAD                     ALL TIMES    "  1  285"                                 case2.csub.obs.csv                                                              
 H0286                                    CONTINUOUS  DELAY-HEAD                     ALL TIMES    "  1  286"                                 case2.csub.obs.csv                                                              
 H0287                                    CONTINUOUS  DELAY-HEAD                     ALL TIMES    "  1  287"                                 case2.csub.obs.csv                                                              
 H0288                                    CONTINUOUS  DELAY-HEAD                     ALL TIMES    "  1  288"                                 case2.csub.obs.csv                                                              
 H0289                                    CONTINUOUS  DELAY-HEAD                     ALL TIMES    "  1  289"                                 case2.csub.obs.csv                                                              
 H0290                                    CONTINUOUS  DELAY-HEAD                     ALL TIMES    "  1  290"                                 case2.csub.obs.csv                                                              
 H0291                                    CONTINUOUS  DELAY-HEAD                     ALL TIMES    "  1  291"                                 case2.csub.obs.csv                                                              
 H0292                                    CONTINUOUS  DELAY-HEAD                     ALL TIMES    "  1  292"                                 case2.csub.obs.csv                                                              
 H0293                                    CONTINUOUS  DELAY-HEAD                     ALL TIMES    "  1  293"                                 case2.csub.obs.csv                                                              
 H0294                                    CONTINUOUS  DELAY-HEAD                     ALL TIMES    "  1  294"                                 case2.csub.obs.csv                                                              
 H0295                                    CONTINUOUS  DELAY-HEAD                     ALL TIMES    "  1  295"                                 case2.csub.obs.csv                                                              
 H0296                                    CONTINUOUS  DELAY-HEAD                     ALL TIMES    "  1  296"                                 case2.csub.obs.csv                                                              
 H0297                                    CONTINUOUS  DELAY-HEAD                     ALL TIMES    "  1  297"                                 case2.csub.obs.csv                                                              
 H0298                                    CONTINUOUS  DELAY-HEAD                     ALL TIMES    "  1  298"                                 case2.csub.obs.csv                                                              
 H0299                                    CONTINUOUS  DELAY-HEAD                     ALL TIMES    "  1  299"                                 case2.csub.obs.csv                                                              
 H0300                                    CONTINUOUS  DELAY-HEAD                     ALL TIMES    "  1  300"                                 case2.csub.obs.csv                                                              
 H0301                                    CONTINUOUS  DELAY-HEAD                     ALL TIMES    "  1  301"                                 case2.csub.obs.csv                                                              
 H0302                                    CONTINUOUS  DELAY-HEAD                     ALL TIMES    "  1  302"                                 case2.csub.obs.csv                                                              
 H0303                                    CONTINUOUS  DELAY-HEAD                     ALL TIMES    "  1  303"                                 case2.csub.obs.csv                                                              
 H0304                                    CONTINUOUS  DELAY-HEAD                     ALL TIMES    "  1  304"                                 case2.csub.obs.csv                                                              
 H0305                                    CONTINUOUS  DELAY-HEAD                     ALL TIMES    "  1  305"                                 case2.csub.obs.csv                                                              
 H0306                                    CONTINUOUS  DELAY-HEAD                     ALL TIMES    "  1  306"                                 case2.csub.obs.csv                                                              
 H0307                                    CONTINUOUS  DELAY-HEAD                     ALL TIMES    "  1  307"                                 case2.csub.obs.csv                                                              
 H0308                                    CONTINUOUS  DELAY-HEAD                     ALL TIMES    "  1  308"                                 case2.csub.obs.csv                                                              
 H0309                                    CONTINUOUS  DELAY-HEAD                     ALL TIMES    "  1  309"                                 case2.csub.obs.csv                                                              
 H0310                                    CONTINUOUS  DELAY-HEAD                     ALL TIMES    "  1  310"                                 case2.csub.obs.csv                                                              
 H0311                                    CONTINUOUS  DELAY-HEAD                     ALL TIMES    "  1  311"                                 case2.csub.obs.csv                                                              
 H0312                                    CONTINUOUS  DELAY-HEAD                     ALL TIMES    "  1  312"                                 case2.csub.obs.csv                                                              
 H0313                                    CONTINUOUS  DELAY-HEAD                     ALL TIMES    "  1  313"                                 case2.csub.obs.csv                                                              
 H0314                                    CONTINUOUS  DELAY-HEAD                     ALL TIMES    "  1  314"                                 case2.csub.obs.csv                                                              
 H0315                                    CONTINUOUS  DELAY-HEAD                     ALL TIMES    "  1  315"                                 case2.csub.obs.csv                                                              
 H0316                                    CONTINUOUS  DELAY-HEAD                     ALL TIMES    "  1  316"                                 case2.csub.obs.csv                                                              
 H0317                                    CONTINUOUS  DELAY-HEAD                     ALL TIMES    "  1  317"                                 case2.csub.obs.csv                                                              
 H0318                                    CONTINUOUS  DELAY-HEAD                     ALL TIMES    "  1  318"                                 case2.csub.obs.csv                                                              
 H0319                                    CONTINUOUS  DELAY-HEAD                     ALL TIMES    "  1  319"                                 case2.csub.obs.csv                                                              
 H0320                                    CONTINUOUS  DELAY-HEAD                     ALL TIMES    "  1  320"                                 case2.csub.obs.csv                                                              
 H0321                                    CONTINUOUS  DELAY-HEAD                     ALL TIMES    "  1  321"                                 case2.csub.obs.csv                                                              
 H0322                                    CONTINUOUS  DELAY-HEAD                     ALL TIMES    "  1  322"                                 case2.csub.obs.csv                                                              
 H0323                                    CONTINUOUS  DELAY-HEAD                     ALL TIMES    "  1  323"                                 case2.csub.obs.csv                                                              
 H0324                                    CONTINUOUS  DELAY-HEAD                     ALL TIMES    "  1  324"                                 case2.csub.obs.csv                                                              
 H0325                                    CONTINUOUS  DELAY-HEAD                     ALL TIMES    "  1  325"                                 case2.csub.obs.csv                                                              
 H0326                                    CONTINUOUS  DELAY-HEAD                     ALL TIMES    "  1  326"                                 case2.csub.obs.csv                                                              
 H0327                                    CONTINUOUS  DELAY-HEAD                     ALL TIMES    "  1  327"                                 case2.csub.obs.csv                                                              
 H0328                                    CONTINUOUS  DELAY-HEAD                     ALL TIMES    "  1  328"                                 case2.csub.obs.csv                                                              
 H0329                                    CONTINUOUS  DELAY-HEAD                     ALL TIMES    "  1  329"                                 case2.csub.obs.csv                                                              
 H0330                                    CONTINUOUS  DELAY-HEAD                     ALL TIMES    "  1  330"                                 case2.csub.obs.csv                                                              
 H0331                                    CONTINUOUS  DELAY-HEAD                     ALL TIMES    "  1  331"                                 case2.csub.obs.csv                                                              
 H0332                                    CONTINUOUS  DELAY-HEAD                     ALL TIMES    "  1  332"                                 case2.csub.obs.csv                                                              
 H0333                                    CONTINUOUS  DELAY-HEAD                     ALL TIMES    "  1  333"                                 case2.csub.obs.csv                                                              
 H0334                                    CONTINUOUS  DELAY-HEAD                     ALL TIMES    "  1  334"                                 case2.csub.obs.csv                                                              
 H0335                                    CONTINUOUS  DELAY-HEAD                     ALL TIMES    "  1  335"                                 case2.csub.obs.csv                                                              
 H0336                                    CONTINUOUS  DELAY-HEAD                     ALL TIMES    "  1  336"                                 case2.csub.obs.csv                                                              
 H0337                                    CONTINUOUS  DELAY-HEAD                     ALL TIMES    "  1  337"                                 case2.csub.obs.csv                                                              
 H0338                                    CONTINUOUS  DELAY-HEAD                     ALL TIMES    "  1  338"                                 case2.csub.obs.csv                                                              
 H0339                                    CONTINUOUS  DELAY-HEAD                     ALL TIMES    "  1  339"                                 case2.csub.obs.csv                                                              
 H0340                                    CONTINUOUS  DELAY-HEAD                     ALL TIMES    "  1  340"                                 case2.csub.obs.csv                                                              
 H0341                                    CONTINUOUS  DELAY-HEAD                     ALL TIMES    "  1  341"                                 case2.csub.obs.csv                                                              
 H0342                                    CONTINUOUS  DELAY-HEAD                     ALL TIMES    "  1  342"                                 case2.csub.obs.csv                                                              
 H0343                                    CONTINUOUS  DELAY-HEAD                     ALL TIMES    "  1  343"                                 case2.csub.obs.csv                                                              
 H0344                                    CONTINUOUS  DELAY-HEAD                     ALL TIMES    "  1  344"                                 case2.csub.obs.csv                                                              
 H0345                                    CONTINUOUS  DELAY-HEAD                     ALL TIMES    "  1  345"                                 case2.csub.obs.csv                                                              
 H0346                                    CONTINUOUS  DELAY-HEAD                     ALL TIMES    "  1  346"                                 case2.csub.obs.csv                                                              
 H0347                                    CONTINUOUS  DELAY-HEAD                     ALL TIMES    "  1  347"                                 case2.csub.obs.csv                                                              
 H0348                                    CONTINUOUS  DELAY-HEAD                     ALL TIMES    "  1  348"                                 case2.csub.obs.csv                                                              
 H0349                                    CONTINUOUS  DELAY-HEAD                     ALL TIMES    "  1  349"                                 case2.csub.obs.csv                                                              
 H0350                                    CONTINUOUS  DELAY-HEAD                     ALL TIMES    "  1  350"                                 case2.csub.obs.csv                                                              
 H0351                                    CONTINUOUS  DELAY-HEAD                     ALL TIMES    "  1  351"                                 case2.csub.obs.csv                                                              
 H0352                                    CONTINUOUS  DELAY-HEAD                     ALL TIMES    "  1  352"                                 case2.csub.obs.csv                                                              
 H0353                                    CONTINUOUS  DELAY-HEAD                     ALL TIMES    "  1  353"                                 case2.csub.obs.csv                                                              
 H0354                                    CONTINUOUS  DELAY-HEAD                     ALL TIMES    "  1  354"                                 case2.csub.obs.csv                                                              
 H0355                                    CONTINUOUS  DELAY-HEAD                     ALL TIMES    "  1  355"                                 case2.csub.obs.csv                                                              
 H0356                                    CONTINUOUS  DELAY-HEAD                     ALL TIMES    "  1  356"                                 case2.csub.obs.csv                                                              
 H0357                                    CONTINUOUS  DELAY-HEAD                     ALL TIMES    "  1  357"                                 case2.csub.obs.csv                                                              
 H0358                                    CONTINUOUS  DELAY-HEAD                     ALL TIMES    "  1  358"                                 case2.csub.obs.csv                                                              
 H0359                                    CONTINUOUS  DELAY-HEAD                     ALL TIMES    "  1  359"                                 case2.csub.obs.csv                                                              
 H0360                                    CONTINUOUS  DELAY-HEAD                     ALL TIMES    "  1  360"                                 case2.csub.obs.csv                                                              
 H0361                                    CONTINUOUS  DELAY-HEAD                     ALL TIMES    "  1  361"                                 case2.csub.obs.csv                                                              
 H0362                                    CONTINUOUS  DELAY-HEAD                     ALL TIMES    "  1  362"                                 case2.csub.obs.csv                                                              
 H0363                                    CONTINUOUS  DELAY-HEAD                     ALL TIMES    "  1  363"                                 case2.csub.obs.csv                                                              
 H0364                                    CONTINUOUS  DELAY-HEAD                     ALL TIMES    "  1  364"                                 case2.csub.obs.csv                                                              
 H0365                                    CONTINUOUS  DELAY-HEAD                     ALL TIMES    "  1  365"                                 case2.csub.obs.csv                                                              
 H0366                                    CONTINUOUS  DELAY-HEAD                     ALL TIMES    "  1  366"                                 case2.csub.obs.csv                                                              
 H0367                                    CONTINUOUS  DELAY-HEAD                     ALL TIMES    "  1  367"                                 case2.csub.obs.csv                                                              
 H0368                                    CONTINUOUS  DELAY-HEAD                     ALL TIMES    "  1  368"                                 case2.csub.obs.csv                                                              
 H0369                                    CONTINUOUS  DELAY-HEAD                     ALL TIMES    "  1  369"                                 case2.csub.obs.csv                                                              
 H0370                                    CONTINUOUS  DELAY-HEAD                     ALL TIMES    "  1  370"                                 case2.csub.obs.csv                                                              
 H0371                                    CONTINUOUS  DELAY-HEAD                     ALL TIMES    "  1  371"                                 case2.csub.obs.csv                                                              
 H0372                                    CONTINUOUS  DELAY-HEAD                     ALL TIMES    "  1  372"                                 case2.csub.obs.csv                                                              
 H0373                                    CONTINUOUS  DELAY-HEAD                     ALL TIMES    "  1  373"                                 case2.csub.obs.csv                                                              
 H0374                                    CONTINUOUS  DELAY-HEAD                     ALL TIMES    "  1  374"                                 case2.csub.obs.csv                                                              
 H0375                                    CONTINUOUS  DELAY-HEAD                     ALL TIMES    "  1  375"                                 case2.csub.obs.csv                                                              
 H0376                                    CONTINUOUS  DELAY-HEAD                     ALL TIMES    "  1  376"                                 case2.csub.obs.csv                                                              
 H0377                                    CONTINUOUS  DELAY-HEAD                     ALL TIMES    "  1  377"                                 case2.csub.obs.csv                                                              
 H0378                                    CONTINUOUS  DELAY-HEAD                     ALL TIMES    "  1  378"                                 case2.csub.obs.csv                                                              
 H0379                                    CONTINUOUS  DELAY-HEAD                     ALL TIMES    "  1  379"                                 case2.csub.obs.csv                                                              
 H0380                                    CONTINUOUS  DELAY-HEAD                     ALL TIMES    "  1  380"                                 case2.csub.obs.csv                                                              
 H0381                                    CONTINUOUS  DELAY-HEAD                     ALL TIMES    "  1  381"                                 case2.csub.obs.csv                                                              
 H0382                                    CONTINUOUS  DELAY-HEAD                     ALL TIMES    "  1  382"                                 case2.csub.obs.csv                                                              
 H0383                                    CONTINUOUS  DELAY-HEAD                     ALL TIMES    "  1  383"                                 case2.csub.obs.csv                                                              
 H0384                                    CONTINUOUS  DELAY-HEAD                     ALL TIMES    "  1  384"                                 case2.csub.obs.csv                                                              
 H0385                                    CONTINUOUS  DELAY-HEAD                     ALL TIMES    "  1  385"                                 case2.csub.obs.csv                                                              
 H0386                                    CONTINUOUS  DELAY-HEAD                     ALL TIMES    "  1  386"                                 case2.csub.obs.csv                                                              
 H0387                                    CONTINUOUS  DELAY-HEAD                     ALL TIMES    "  1  387"                                 case2.csub.obs.csv                                                              
 H0388                                    CONTINUOUS  DELAY-HEAD                     ALL TIMES    "  1  388"                                 case2.csub.obs.csv                                                              
 H0389                                    CONTINUOUS  DELAY-HEAD                     ALL TIMES    "  1  389"                                 case2.csub.obs.csv                                                              
 H0390                                    CONTINUOUS  DELAY-HEAD                     ALL TIMES    "  1  390"                                 case2.csub.obs.csv                                                              
 H0391                                    CONTINUOUS  DELAY-HEAD                     ALL TIMES    "  1  391"                                 case2.csub.obs.csv                                                              
 H0392                                    CONTINUOUS  DELAY-HEAD                     ALL TIMES    "  1  392"                                 case2.csub.obs.csv                                                              
 H0393                                    CONTINUOUS  DELAY-HEAD                     ALL TIMES    "  1  393"                                 case2.csub.obs.csv                                                              
 H0394                                    CONTINUOUS  DELAY-HEAD                     ALL TIMES    "  1  394"                                 case2.csub.obs.csv                                                              
 H0395                                    CONTINUOUS  DELAY-HEAD                     ALL TIMES    "  1  395"                                 case2.csub.obs.csv                                                              
 H0396                                    CONTINUOUS  DELAY-HEAD                     ALL TIMES    "  1  396"                                 case2.csub.obs.csv                                                              
 H0397                                    CONTINUOUS  DELAY-HEAD                     ALL TIMES    "  1  397"                                 case2.csub.obs.csv                                                              
 H0398                                    CONTINUOUS  DELAY-HEAD                     ALL TIMES    "  1  398"                                 case2.csub.obs.csv                                                              
 H0399                                    CONTINUOUS  DELAY-HEAD                     ALL TIMES    "  1  399"                                 case2.csub.obs.csv                                                              
 H0400                                    CONTINUOUS  DELAY-HEAD                     ALL TIMES    "  1  400"                                 case2.csub.obs.csv                                                              
 H0401                                    CONTINUOUS  DELAY-HEAD                     ALL TIMES    "  1  401"                                 case2.csub.obs.csv                                                              
 H0402                                    CONTINUOUS  DELAY-HEAD                     ALL TIMES    "  1  402"                                 case2.csub.obs.csv                                                              
 H0403                                    CONTINUOUS  DELAY-HEAD                     ALL TIMES    "  1  403"                                 case2.csub.obs.csv                                                              
 H0404                                    CONTINUOUS  DELAY-HEAD                     ALL TIMES    "  1  404"                                 case2.csub.obs.csv                                                              
 H0405                                    CONTINUOUS  DELAY-HEAD                     ALL TIMES    "  1  405"                                 case2.csub.obs.csv                                                              
 H0406                                    CONTINUOUS  DELAY-HEAD                     ALL TIMES    "  1  406"                                 case2.csub.obs.csv                                                              
 H0407                                    CONTINUOUS  DELAY-HEAD                     ALL TIMES    "  1  407"                                 case2.csub.obs.csv                                                              
 H0408                                    CONTINUOUS  DELAY-HEAD                     ALL TIMES    "  1  408"                                 case2.csub.obs.csv                                                              
 H0409                                    CONTINUOUS  DELAY-HEAD                     ALL TIMES    "  1  409"                                 case2.csub.obs.csv                                                              
 H0410                                    CONTINUOUS  DELAY-HEAD                     ALL TIMES    "  1  410"                                 case2.csub.obs.csv                                                              
 H0411                                    CONTINUOUS  DELAY-HEAD                     ALL TIMES    "  1  411"                                 case2.csub.obs.csv                                                              
 H0412                                    CONTINUOUS  DELAY-HEAD                     ALL TIMES    "  1  412"                                 case2.csub.obs.csv                                                              
 H0413                                    CONTINUOUS  DELAY-HEAD                     ALL TIMES    "  1  413"                                 case2.csub.obs.csv                                                              
 H0414                                    CONTINUOUS  DELAY-HEAD                     ALL TIMES    "  1  414"                                 case2.csub.obs.csv                                                              
 H0415                                    CONTINUOUS  DELAY-HEAD                     ALL TIMES    "  1  415"                                 case2.csub.obs.csv                                                              
 H0416                                    CONTINUOUS  DELAY-HEAD                     ALL TIMES    "  1  416"                                 case2.csub.obs.csv                                                              
 H0417                                    CONTINUOUS  DELAY-HEAD                     ALL TIMES    "  1  417"                                 case2.csub.obs.csv                                                              
 H0418                                    CONTINUOUS  DELAY-HEAD                     ALL TIMES    "  1  418"                                 case2.csub.obs.csv                                                              
 H0419                                    CONTINUOUS  DELAY-HEAD                     ALL TIMES    "  1  419"                                 case2.csub.obs.csv                                                              
 H0420                                    CONTINUOUS  DELAY-HEAD                     ALL TIMES    "  1  420"                                 case2.csub.obs.csv                                                              
 H0421                                    CONTINUOUS  DELAY-HEAD                     ALL TIMES    "  1  421"                                 case2.csub.obs.csv                                                              
 H0422                                    CONTINUOUS  DELAY-HEAD                     ALL TIMES    "  1  422"                                 case2.csub.obs.csv                                                              
 H0423                                    CONTINUOUS  DELAY-HEAD                     ALL TIMES    "  1  423"                                 case2.csub.obs.csv                                                              
 H0424                                    CONTINUOUS  DELAY-HEAD                     ALL TIMES    "  1  424"                                 case2.csub.obs.csv                                                              
 H0425                                    CONTINUOUS  DELAY-HEAD                     ALL TIMES    "  1  425"                                 case2.csub.obs.csv                                                              
 H0426                                    CONTINUOUS  DELAY-HEAD                     ALL TIMES    "  1  426"                                 case2.csub.obs.csv                                                              
 H0427                                    CONTINUOUS  DELAY-HEAD                     ALL TIMES    "  1  427"                                 case2.csub.obs.csv                                                              
 H0428                                    CONTINUOUS  DELAY-HEAD                     ALL TIMES    "  1  428"                                 case2.csub.obs.csv                                                              
 H0429                                    CONTINUOUS  DELAY-HEAD                     ALL TIMES    "  1  429"                                 case2.csub.obs.csv                                                              
 H0430                                    CONTINUOUS  DELAY-HEAD                     ALL TIMES    "  1  430"                                 case2.csub.obs.csv                                                              
 H0431                                    CONTINUOUS  DELAY-HEAD                     ALL TIMES    "  1  431"                                 case2.csub.obs.csv                                                              
 H0432                                    CONTINUOUS  DELAY-HEAD                     ALL TIMES    "  1  432"                                 case2.csub.obs.csv                                                              
 H0433                                    CONTINUOUS  DELAY-HEAD                     ALL TIMES    "  1  433"                                 case2.csub.obs.csv                                                              
 H0434                                    CONTINUOUS  DELAY-HEAD                     ALL TIMES    "  1  434"                                 case2.csub.obs.csv                                                              
 H0435                                    CONTINUOUS  DELAY-HEAD                     ALL TIMES    "  1  435"                                 case2.csub.obs.csv                                                              
 H0436                                    CONTINUOUS  DELAY-HEAD                     ALL TIMES    "  1  436"                                 case2.csub.obs.csv                                                              
 H0437                                    CONTINUOUS  DELAY-HEAD                     ALL TIMES    "  1  437"                                 case2.csub.obs.csv                                                              
 H0438                                    CONTINUOUS  DELAY-HEAD                     ALL TIMES    "  1  438"                                 case2.csub.obs.csv                                                              
 H0439                                    CONTINUOUS  DELAY-HEAD                     ALL TIMES    "  1  439"                                 case2.csub.obs.csv                                                              
 H0440                                    CONTINUOUS  DELAY-HEAD                     ALL TIMES    "  1  440"                                 case2.csub.obs.csv                                                              
 H0441                                    CONTINUOUS  DELAY-HEAD                     ALL TIMES    "  1  441"                                 case2.csub.obs.csv                                                              
 H0442                                    CONTINUOUS  DELAY-HEAD                     ALL TIMES    "  1  442"                                 case2.csub.obs.csv                                                              
 H0443                                    CONTINUOUS  DELAY-HEAD                     ALL TIMES    "  1  443"                                 case2.csub.obs.csv                                                              
 H0444                                    CONTINUOUS  DELAY-HEAD                     ALL TIMES    "  1  444"                                 case2.csub.obs.csv                                                              
 H0445                                    CONTINUOUS  DELAY-HEAD                     ALL TIMES    "  1  445"                                 case2.csub.obs.csv                                                              
 H0446                                    CONTINUOUS  DELAY-HEAD                     ALL TIMES    "  1  446"                                 case2.csub.obs.csv                                                              
 H0447                                    CONTINUOUS  DELAY-HEAD                     ALL TIMES    "  1  447"                                 case2.csub.obs.csv                                                              
 H0448                                    CONTINUOUS  DELAY-HEAD                     ALL TIMES    "  1  448"                                 case2.csub.obs.csv                                                              
 H0449                                    CONTINUOUS  DELAY-HEAD                     ALL TIMES    "  1  449"                                 case2.csub.obs.csv                                                              
 H0450                                    CONTINUOUS  DELAY-HEAD                     ALL TIMES    "  1  450"                                 case2.csub.obs.csv                                                              
 H0451                                    CONTINUOUS  DELAY-HEAD                     ALL TIMES    "  1  451"                                 case2.csub.obs.csv                                                              
 H0452                                    CONTINUOUS  DELAY-HEAD                     ALL TIMES    "  1  452"                                 case2.csub.obs.csv                                                              
 H0453                                    CONTINUOUS  DELAY-HEAD                     ALL TIMES    "  1  453"                                 case2.csub.obs.csv                                                              
 H0454                                    CONTINUOUS  DELAY-HEAD                     ALL TIMES    "  1  454"                                 case2.csub.obs.csv                                                              
 H0455                                    CONTINUOUS  DELAY-HEAD                     ALL TIMES    "  1  455"                                 case2.csub.obs.csv                                                              
 H0456                                    CONTINUOUS  DELAY-HEAD                     ALL TIMES    "  1  456"                                 case2.csub.obs.csv                                                              
 H0457                                    CONTINUOUS  DELAY-HEAD                     ALL TIMES    "  1  457"                                 case2.csub.obs.csv                                                              
 H0458                                    CONTINUOUS  DELAY-HEAD                     ALL TIMES    "  1  458"                                 case2.csub.obs.csv                                                              
 H0459                                    CONTINUOUS  DELAY-HEAD                     ALL TIMES    "  1  459"                                 case2.csub.obs.csv                                                              
 H0460                                    CONTINUOUS  DELAY-HEAD                     ALL TIMES    "  1  460"                                 case2.csub.obs.csv                                                              
 H0461                                    CONTINUOUS  DELAY-HEAD                     ALL TIMES    "  1  461"                                 case2.csub.obs.csv                                                              
 H0462                                    CONTINUOUS  DELAY-HEAD                     ALL TIMES    "  1  462"                                 case2.csub.obs.csv                                                              
 H0463                                    CONTINUOUS  DELAY-HEAD                     ALL TIMES    "  1  463"                                 case2.csub.obs.csv                                                              
 H0464                                    CONTINUOUS  DELAY-HEAD                     ALL TIMES    "  1  464"                                 case2.csub.obs.csv                                                              
 H0465                                    CONTINUOUS  DELAY-HEAD                     ALL TIMES    "  1  465"                                 case2.csub.obs.csv                                                              
 H0466                                    CONTINUOUS  DELAY-HEAD                     ALL TIMES    "  1  466"                                 case2.csub.obs.csv                                                              
 H0467                                    CONTINUOUS  DELAY-HEAD                     ALL TIMES    "  1  467"                                 case2.csub.obs.csv                                                              
 H0468                                    CONTINUOUS  DELAY-HEAD                     ALL TIMES    "  1  468"                                 case2.csub.obs.csv                                                              
 H0469                                    CONTINUOUS  DELAY-HEAD                     ALL TIMES    "  1  469"                                 case2.csub.obs.csv                                                              
 H0470                                    CONTINUOUS  DELAY-HEAD                     ALL TIMES    "  1  470"                                 case2.csub.obs.csv                                                              
 H0471                                    CONTINUOUS  DELAY-HEAD                     ALL TIMES    "  1  471"                                 case2.csub.obs.csv                                                              
 H0472                                    CONTINUOUS  DELAY-HEAD                     ALL TIMES    "  1  472"                                 case2.csub.obs.csv                                                              
 H0473                                    CONTINUOUS  DELAY-HEAD                     ALL TIMES    "  1  473"                                 case2.csub.obs.csv                                                              
 H0474                                    CONTINUOUS  DELAY-HEAD                     ALL TIMES    "  1  474"                                 case2.csub.obs.csv                                                              
 H0475                                    CONTINUOUS  DELAY-HEAD                     ALL TIMES    "  1  475"                                 case2.csub.obs.csv                                                              
 H0476                                    CONTINUOUS  DELAY-HEAD                     ALL TIMES    "  1  476"                                 case2.csub.obs.csv                                                              
 H0477                                    CONTINUOUS  DELAY-HEAD                     ALL TIMES    "  1  477"                                 case2.csub.obs.csv                                                              
 H0478                                    CONTINUOUS  DELAY-HEAD                     ALL TIMES    "  1  478"                                 case2.csub.obs.csv                                                              
 H0479                                    CONTINUOUS  DELAY-HEAD                     ALL TIMES    "  1  479"                                 case2.csub.obs.csv                                                              
 H0480                                    CONTINUOUS  DELAY-HEAD                     ALL TIMES    "  1  480"                                 case2.csub.obs.csv                                                              
 H0481                                    CONTINUOUS  DELAY-HEAD                     ALL TIMES    "  1  481"                                 case2.csub.obs.csv                                                              
 H0482                                    CONTINUOUS  DELAY-HEAD                     ALL TIMES    "  1  482"                                 case2.csub.obs.csv                                                              
 H0483                                    CONTINUOUS  DELAY-HEAD                     ALL TIMES    "  1  483"                                 case2.csub.obs.csv                                                              
 H0484                                    CONTINUOUS  DELAY-HEAD                     ALL TIMES    "  1  484"                                 case2.csub.obs.csv                                                              
 H0485                                    CONTINUOUS  DELAY-HEAD                     ALL TIMES    "  1  485"                                 case2.csub.obs.csv                                                              
 H0486                                    CONTINUOUS  DELAY-HEAD                     ALL TIMES    "  1  486"                                 case2.csub.obs.csv                                                              
 H0487                                    CONTINUOUS  DELAY-HEAD                     ALL TIMES    "  1  487"                                 case2.csub.obs.csv                                                              
 H0488                                    CONTINUOUS  DELAY-HEAD                     ALL TIMES    "  1  488"                                 case2.csub.obs.csv                                                              
 H0489                                    CONTINUOUS  DELAY-HEAD                     ALL TIMES    "  1  489"                                 case2.csub.obs.csv                                                              
 H0490                                    CONTINUOUS  DELAY-HEAD                     ALL TIMES    "  1  490"                                 case2.csub.obs.csv                                                              
 H0491                                    CONTINUOUS  DELAY-HEAD                     ALL TIMES    "  1  491"                                 case2.csub.obs.csv                                                              
 H0492                                    CONTINUOUS  DELAY-HEAD                     ALL TIMES    "  1  492"                                 case2.csub.obs.csv                                                              
 H0493                                    CONTINUOUS  DELAY-HEAD                     ALL TIMES    "  1  493"                                 case2.csub.obs.csv                                                              
 H0494                                    CONTINUOUS  DELAY-HEAD                     ALL TIMES    "  1  494"                                 case2.csub.obs.csv                                                              
 H0495                                    CONTINUOUS  DELAY-HEAD                     ALL TIMES    "  1  495"                                 case2.csub.obs.csv                                                              
 H0496                                    CONTINUOUS  DELAY-HEAD                     ALL TIMES    "  1  496"                                 case2.csub.obs.csv                                                              
 H0497                                    CONTINUOUS  DELAY-HEAD                     ALL TIMES    "  1  497"                                 case2.csub.obs.csv                                                              
 H0498                                    CONTINUOUS  DELAY-HEAD                     ALL TIMES    "  1  498"                                 case2.csub.obs.csv                                                              
 H0499                                    CONTINUOUS  DELAY-HEAD                     ALL TIMES    "  1  499"                                 case2.csub.obs.csv                                                              
 H0500                                    CONTINUOUS  DELAY-HEAD                     ALL TIMES    "  1  500"                                 case2.csub.obs.csv                                                              
 H0501                                    CONTINUOUS  DELAY-HEAD                     ALL TIMES    "  1  501"                                 case2.csub.obs.csv                                                              
 H0502                                    CONTINUOUS  DELAY-HEAD                     ALL TIMES    "  1  502"                                 case2.csub.obs.csv                                                              
 H0503                                    CONTINUOUS  DELAY-HEAD                     ALL TIMES    "  1  503"                                 case2.csub.obs.csv                                                              
 H0504                                    CONTINUOUS  DELAY-HEAD                     ALL TIMES    "  1  504"                                 case2.csub.obs.csv                                                              
 H0505                                    CONTINUOUS  DELAY-HEAD                     ALL TIMES    "  1  505"                                 case2.csub.obs.csv                                                              
 H0506                                    CONTINUOUS  DELAY-HEAD                     ALL TIMES    "  1  506"                                 case2.csub.obs.csv                                                              
 H0507                                    CONTINUOUS  DELAY-HEAD                     ALL TIMES    "  1  507"                                 case2.csub.obs.csv                                                              
 H0508                                    CONTINUOUS  DELAY-HEAD                     ALL TIMES    "  1  508"                                 case2.csub.obs.csv                                                              
 H0509                                    CONTINUOUS  DELAY-HEAD                     ALL TIMES    "  1  509"                                 case2.csub.obs.csv                                                              
 H0510                                    CONTINUOUS  DELAY-HEAD                     ALL TIMES    "  1  510"                                 case2.csub.obs.csv                                                              
 H0511                                    CONTINUOUS  DELAY-HEAD                     ALL TIMES    "  1  511"                                 case2.csub.obs.csv                                                              
 H0512                                    CONTINUOUS  DELAY-HEAD                     ALL TIMES    "  1  512"                                 case2.csub.obs.csv                                                              
 H0513                                    CONTINUOUS  DELAY-HEAD                     ALL TIMES    "  1  513"                                 case2.csub.obs.csv                                                              
 H0514                                    CONTINUOUS  DELAY-HEAD                     ALL TIMES    "  1  514"                                 case2.csub.obs.csv                                                              
 H0515                                    CONTINUOUS  DELAY-HEAD                     ALL TIMES    "  1  515"                                 case2.csub.obs.csv                                                              
 H0516                                    CONTINUOUS  DELAY-HEAD                     ALL TIMES    "  1  516"                                 case2.csub.obs.csv                                                              
 H0517                                    CONTINUOUS  DELAY-HEAD                     ALL TIMES    "  1  517"                                 case2.csub.obs.csv                                                              
 H0518                                    CONTINUOUS  DELAY-HEAD                     ALL TIMES    "  1  518"                                 case2.csub.obs.csv                                                              
 H0519                                    CONTINUOUS  DELAY-HEAD                     ALL TIMES    "  1  519"                                 case2.csub.obs.csv                                                              
 H0520                                    CONTINUOUS  DELAY-HEAD                     ALL TIMES    "  1  520"                                 case2.csub.obs.csv                                                              
 H0521                                    CONTINUOUS  DELAY-HEAD                     ALL TIMES    "  1  521"                                 case2.csub.obs.csv                                                              
 H0522                                    CONTINUOUS  DELAY-HEAD                     ALL TIMES    "  1  522"                                 case2.csub.obs.csv                                                              
 H0523                                    CONTINUOUS  DELAY-HEAD                     ALL TIMES    "  1  523"                                 case2.csub.obs.csv                                                              
 H0524                                    CONTINUOUS  DELAY-HEAD                     ALL TIMES    "  1  524"                                 case2.csub.obs.csv                                                              
 H0525                                    CONTINUOUS  DELAY-HEAD                     ALL TIMES    "  1  525"                                 case2.csub.obs.csv                                                              
 H0526                                    CONTINUOUS  DELAY-HEAD                     ALL TIMES    "  1  526"                                 case2.csub.obs.csv                                                              
 H0527                                    CONTINUOUS  DELAY-HEAD                     ALL TIMES    "  1  527"                                 case2.csub.obs.csv                                                              
 H0528                                    CONTINUOUS  DELAY-HEAD                     ALL TIMES    "  1  528"                                 case2.csub.obs.csv                                                              
 H0529                                    CONTINUOUS  DELAY-HEAD                     ALL TIMES    "  1  529"                                 case2.csub.obs.csv                                                              
 H0530                                    CONTINUOUS  DELAY-HEAD                     ALL TIMES    "  1  530"                                 case2.csub.obs.csv                                                              
 H0531                                    CONTINUOUS  DELAY-HEAD                     ALL TIMES    "  1  531"                                 case2.csub.obs.csv                                                              
 H0532                                    CONTINUOUS  DELAY-HEAD                     ALL TIMES    "  1  532"                                 case2.csub.obs.csv                                                              
 H0533                                    CONTINUOUS  DELAY-HEAD                     ALL TIMES    "  1  533"                                 case2.csub.obs.csv                                                              
 H0534                                    CONTINUOUS  DELAY-HEAD                     ALL TIMES    "  1  534"                                 case2.csub.obs.csv                                                              
 H0535                                    CONTINUOUS  DELAY-HEAD                     ALL TIMES    "  1  535"                                 case2.csub.obs.csv                                                              
 H0536                                    CONTINUOUS  DELAY-HEAD                     ALL TIMES    "  1  536"                                 case2.csub.obs.csv                                                              
 H0537                                    CONTINUOUS  DELAY-HEAD                     ALL TIMES    "  1  537"                                 case2.csub.obs.csv                                                              
 H0538                                    CONTINUOUS  DELAY-HEAD                     ALL TIMES    "  1  538"                                 case2.csub.obs.csv                                                              
 H0539                                    CONTINUOUS  DELAY-HEAD                     ALL TIMES    "  1  539"                                 case2.csub.obs.csv                                                              
 H0540                                    CONTINUOUS  DELAY-HEAD                     ALL TIMES    "  1  540"                                 case2.csub.obs.csv                                                              
 H0541                                    CONTINUOUS  DELAY-HEAD                     ALL TIMES    "  1  541"                                 case2.csub.obs.csv                                                              
 H0542                                    CONTINUOUS  DELAY-HEAD                     ALL TIMES    "  1  542"                                 case2.csub.obs.csv                                                              
 H0543                                    CONTINUOUS  DELAY-HEAD                     ALL TIMES    "  1  543"                                 case2.csub.obs.csv                                                              
 H0544                                    CONTINUOUS  DELAY-HEAD                     ALL TIMES    "  1  544"                                 case2.csub.obs.csv                                                              
 H0545                                    CONTINUOUS  DELAY-HEAD                     ALL TIMES    "  1  545"                                 case2.csub.obs.csv                                                              
 H0546                                    CONTINUOUS  DELAY-HEAD                     ALL TIMES    "  1  546"                                 case2.csub.obs.csv                                                              
 H0547                                    CONTINUOUS  DELAY-HEAD                     ALL TIMES    "  1  547"                                 case2.csub.obs.csv                                                              
 H0548                                    CONTINUOUS  DELAY-HEAD                     ALL TIMES    "  1  548"                                 case2.csub.obs.csv                                                              
 H0549                                    CONTINUOUS  DELAY-HEAD                     ALL TIMES    "  1  549"                                 case2.csub.obs.csv                                                              
 H0550                                    CONTINUOUS  DELAY-HEAD                     ALL TIMES    "  1  550"                                 case2.csub.obs.csv                                                              
 H0551                                    CONTINUOUS  DELAY-HEAD                     ALL TIMES    "  1  551"                                 case2.csub.obs.csv                                                              
 H0552                                    CONTINUOUS  DELAY-HEAD                     ALL TIMES    "  1  552"                                 case2.csub.obs.csv                                                              
 H0553                                    CONTINUOUS  DELAY-HEAD                     ALL TIMES    "  1  553"                                 case2.csub.obs.csv                                                              
 H0554                                    CONTINUOUS  DELAY-HEAD                     ALL TIMES    "  1  554"                                 case2.csub.obs.csv                                                              
 H0555                                    CONTINUOUS  DELAY-HEAD                     ALL TIMES    "  1  555"                                 case2.csub.obs.csv                                                              
 H0556                                    CONTINUOUS  DELAY-HEAD                     ALL TIMES    "  1  556"                                 case2.csub.obs.csv                                                              
 H0557                                    CONTINUOUS  DELAY-HEAD                     ALL TIMES    "  1  557"                                 case2.csub.obs.csv                                                              
 H0558                                    CONTINUOUS  DELAY-HEAD                     ALL TIMES    "  1  558"                                 case2.csub.obs.csv                                                              
 H0559                                    CONTINUOUS  DELAY-HEAD                     ALL TIMES    "  1  559"                                 case2.csub.obs.csv                                                              
 H0560                                    CONTINUOUS  DELAY-HEAD                     ALL TIMES    "  1  560"                                 case2.csub.obs.csv                                                              
 H0561                                    CONTINUOUS  DELAY-HEAD                     ALL TIMES    "  1  561"                                 case2.csub.obs.csv                                                              
 H0562                                    CONTINUOUS  DELAY-HEAD                     ALL TIMES    "  1  562"                                 case2.csub.obs.csv                                                              
 H0563                                    CONTINUOUS  DELAY-HEAD                     ALL TIMES    "  1  563"                                 case2.csub.obs.csv                                                              
 H0564                                    CONTINUOUS  DELAY-HEAD                     ALL TIMES    "  1  564"                                 case2.csub.obs.csv                                                              
 H0565                                    CONTINUOUS  DELAY-HEAD                     ALL TIMES    "  1  565"                                 case2.csub.obs.csv                                                              
 H0566                                    CONTINUOUS  DELAY-HEAD                     ALL TIMES    "  1  566"                                 case2.csub.obs.csv                                                              
 H0567                                    CONTINUOUS  DELAY-HEAD                     ALL TIMES    "  1  567"                                 case2.csub.obs.csv                                                              
 H0568                                    CONTINUOUS  DELAY-HEAD                     ALL TIMES    "  1  568"                                 case2.csub.obs.csv                                                              
 H0569                                    CONTINUOUS  DELAY-HEAD                     ALL TIMES    "  1  569"                                 case2.csub.obs.csv                                                              
 H0570                                    CONTINUOUS  DELAY-HEAD                     ALL TIMES    "  1  570"                                 case2.csub.obs.csv                                                              
 H0571                                    CONTINUOUS  DELAY-HEAD                     ALL TIMES    "  1  571"                                 case2.csub.obs.csv                                                              
 H0572                                    CONTINUOUS  DELAY-HEAD                     ALL TIMES    "  1  572"                                 case2.csub.obs.csv                                                              
 H0573                                    CONTINUOUS  DELAY-HEAD                     ALL TIMES    "  1  573"                                 case2.csub.obs.csv                                                              
 H0574                                    CONTINUOUS  DELAY-HEAD                     ALL TIMES    "  1  574"                                 case2.csub.obs.csv                                                              
 H0575                                    CONTINUOUS  DELAY-HEAD                     ALL TIMES    "  1  575"                                 case2.csub.obs.csv                                                              
 H0576                                    CONTINUOUS  DELAY-HEAD                     ALL TIMES    "  1  576"                                 case2.csub.obs.csv                                                              
 H0577                                    CONTINUOUS  DELAY-HEAD                     ALL TIMES    "  1  577"                                 case2.csub.obs.csv                                                              
 H0578                                    CONTINUOUS  DELAY-HEAD                     ALL TIMES    "  1  578"                                 case2.csub.obs.csv                                                              
 H0579                                    CONTINUOUS  DELAY-HEAD                     ALL TIMES    "  1  579"                                 case2.csub.obs.csv                                                              
 H0580                                    CONTINUOUS  DELAY-HEAD                     ALL TIMES    "  1  580"                                 case2.csub.obs.csv                                                              
 H0581                                    CONTINUOUS  DELAY-HEAD                     ALL TIMES    "  1  581"                                 case2.csub.obs.csv                                                              
 H0582                                    CONTINUOUS  DELAY-HEAD                     ALL TIMES    "  1  582"                                 case2.csub.obs.csv                                                              
 H0583                                    CONTINUOUS  DELAY-HEAD                     ALL TIMES    "  1  583"                                 case2.csub.obs.csv                                                              
 H0584                                    CONTINUOUS  DELAY-HEAD                     ALL TIMES    "  1  584"                                 case2.csub.obs.csv                                                              
 H0585                                    CONTINUOUS  DELAY-HEAD                     ALL TIMES    "  1  585"                                 case2.csub.obs.csv                                                              
 H0586                                    CONTINUOUS  DELAY-HEAD                     ALL TIMES    "  1  586"                                 case2.csub.obs.csv                                                              
 H0587                                    CONTINUOUS  DELAY-HEAD                     ALL TIMES    "  1  587"                                 case2.csub.obs.csv                                                              
 H0588                                    CONTINUOUS  DELAY-HEAD                     ALL TIMES    "  1  588"                                 case2.csub.obs.csv                                                              
 H0589                                    CONTINUOUS  DELAY-HEAD                     ALL TIMES    "  1  589"                                 case2.csub.obs.csv                                                              
 H0590                                    CONTINUOUS  DELAY-HEAD                     ALL TIMES    "  1  590"                                 case2.csub.obs.csv                                                              
 H0591                                    CONTINUOUS  DELAY-HEAD                     ALL TIMES    "  1  591"                                 case2.csub.obs.csv                                                              
 H0592                                    CONTINUOUS  DELAY-HEAD                     ALL TIMES    "  1  592"                                 case2.csub.obs.csv                                                              
 H0593                                    CONTINUOUS  DELAY-HEAD                     ALL TIMES    "  1  593"                                 case2.csub.obs.csv                                                              
 H0594                                    CONTINUOUS  DELAY-HEAD                     ALL TIMES    "  1  594"                                 case2.csub.obs.csv                                                              
 H0595                                    CONTINUOUS  DELAY-HEAD                     ALL TIMES    "  1  595"                                 case2.csub.obs.csv                                                              
 H0596                                    CONTINUOUS  DELAY-HEAD                     ALL TIMES    "  1  596"                                 case2.csub.obs.csv                                                              
 H0597                                    CONTINUOUS  DELAY-HEAD                     ALL TIMES    "  1  597"                                 case2.csub.obs.csv                                                              
 H0598                                    CONTINUOUS  DELAY-HEAD                     ALL TIMES    "  1  598"                                 case2.csub.obs.csv                                                              
 H0599                                    CONTINUOUS  DELAY-HEAD                     ALL TIMES    "  1  599"                                 case2.csub.obs.csv                                                              
 H0600                                    CONTINUOUS  DELAY-HEAD                     ALL TIMES    "  1  600"                                 case2.csub.obs.csv                                                              
 H0601                                    CONTINUOUS  DELAY-HEAD                     ALL TIMES    "  1  601"                                 case2.csub.obs.csv                                                              
 H0602                                    CONTINUOUS  DELAY-HEAD                     ALL TIMES    "  1  602"                                 case2.csub.obs.csv                                                              
 H0603                                    CONTINUOUS  DELAY-HEAD                     ALL TIMES    "  1  603"                                 case2.csub.obs.csv                                                              
 H0604                                    CONTINUOUS  DELAY-HEAD                     ALL TIMES    "  1  604"                                 case2.csub.obs.csv                                                              
 H0605                                    CONTINUOUS  DELAY-HEAD                     ALL TIMES    "  1  605"                                 case2.csub.obs.csv                                                              
 H0606                                    CONTINUOUS  DELAY-HEAD                     ALL TIMES    "  1  606"                                 case2.csub.obs.csv                                                              
 H0607                                    CONTINUOUS  DELAY-HEAD                     ALL TIMES    "  1  607"                                 case2.csub.obs.csv                                                              
 H0608                                    CONTINUOUS  DELAY-HEAD                     ALL TIMES    "  1  608"                                 case2.csub.obs.csv                                                              
 H0609                                    CONTINUOUS  DELAY-HEAD                     ALL TIMES    "  1  609"                                 case2.csub.obs.csv                                                              
 H0610                                    CONTINUOUS  DELAY-HEAD                     ALL TIMES    "  1  610"                                 case2.csub.obs.csv                                                              
 H0611                                    CONTINUOUS  DELAY-HEAD                     ALL TIMES    "  1  611"                                 case2.csub.obs.csv                                                              
 H0612                                    CONTINUOUS  DELAY-HEAD                     ALL TIMES    "  1  612"                                 case2.csub.obs.csv                                                              
 H0613                                    CONTINUOUS  DELAY-HEAD                     ALL TIMES    "  1  613"                                 case2.csub.obs.csv                                                              
 H0614                                    CONTINUOUS  DELAY-HEAD                     ALL TIMES    "  1  614"                                 case2.csub.obs.csv                                                              
 H0615                                    CONTINUOUS  DELAY-HEAD                     ALL TIMES    "  1  615"                                 case2.csub.obs.csv                                                              
 H0616                                    CONTINUOUS  DELAY-HEAD                     ALL TIMES    "  1  616"                                 case2.csub.obs.csv                                                              
 H0617                                    CONTINUOUS  DELAY-HEAD                     ALL TIMES    "  1  617"                                 case2.csub.obs.csv                                                              
 H0618                                    CONTINUOUS  DELAY-HEAD                     ALL TIMES    "  1  618"                                 case2.csub.obs.csv                                                              
 H0619                                    CONTINUOUS  DELAY-HEAD                     ALL TIMES    "  1  619"                                 case2.csub.obs.csv                                                              
 H0620                                    CONTINUOUS  DELAY-HEAD                     ALL TIMES    "  1  620"                                 case2.csub.obs.csv                                                              
 H0621                                    CONTINUOUS  DELAY-HEAD                     ALL TIMES    "  1  621"                                 case2.csub.obs.csv                                                              
 H0622                                    CONTINUOUS  DELAY-HEAD                     ALL TIMES    "  1  622"                                 case2.csub.obs.csv                                                              
 H0623                                    CONTINUOUS  DELAY-HEAD                     ALL TIMES    "  1  623"                                 case2.csub.obs.csv                                                              
 H0624                                    CONTINUOUS  DELAY-HEAD                     ALL TIMES    "  1  624"                                 case2.csub.obs.csv                                                              
 H0625                                    CONTINUOUS  DELAY-HEAD                     ALL TIMES    "  1  625"                                 case2.csub.obs.csv                                                              
 H0626                                    CONTINUOUS  DELAY-HEAD                     ALL TIMES    "  1  626"                                 case2.csub.obs.csv                                                              
 H0627                                    CONTINUOUS  DELAY-HEAD                     ALL TIMES    "  1  627"                                 case2.csub.obs.csv                                                              
 H0628                                    CONTINUOUS  DELAY-HEAD                     ALL TIMES    "  1  628"                                 case2.csub.obs.csv                                                              
 H0629                                    CONTINUOUS  DELAY-HEAD                     ALL TIMES    "  1  629"                                 case2.csub.obs.csv                                                              
 H0630                                    CONTINUOUS  DELAY-HEAD                     ALL TIMES    "  1  630"                                 case2.csub.obs.csv                                                              
 H0631                                    CONTINUOUS  DELAY-HEAD                     ALL TIMES    "  1  631"                                 case2.csub.obs.csv                                                              
 H0632                                    CONTINUOUS  DELAY-HEAD                     ALL TIMES    "  1  632"                                 case2.csub.obs.csv                                                              
 H0633                                    CONTINUOUS  DELAY-HEAD                     ALL TIMES    "  1  633"                                 case2.csub.obs.csv                                                              
 H0634                                    CONTINUOUS  DELAY-HEAD                     ALL TIMES    "  1  634"                                 case2.csub.obs.csv                                                              
 H0635                                    CONTINUOUS  DELAY-HEAD                     ALL TIMES    "  1  635"                                 case2.csub.obs.csv                                                              
 H0636                                    CONTINUOUS  DELAY-HEAD                     ALL TIMES    "  1  636"                                 case2.csub.obs.csv                                                              
 H0637                                    CONTINUOUS  DELAY-HEAD                     ALL TIMES    "  1  637"                                 case2.csub.obs.csv                                                              
 H0638                                    CONTINUOUS  DELAY-HEAD                     ALL TIMES    "  1  638"                                 case2.csub.obs.csv                                                              
 H0639                                    CONTINUOUS  DELAY-HEAD                     ALL TIMES    "  1  639"                                 case2.csub.obs.csv                                                              
 H0640                                    CONTINUOUS  DELAY-HEAD                     ALL TIMES    "  1  640"                                 case2.csub.obs.csv                                                              
 H0641                                    CONTINUOUS  DELAY-HEAD                     ALL TIMES    "  1  641"                                 case2.csub.obs.csv                                                              
 H0642                                    CONTINUOUS  DELAY-HEAD                     ALL TIMES    "  1  642"                                 case2.csub.obs.csv                                                              
 H0643                                    CONTINUOUS  DELAY-HEAD                     ALL TIMES    "  1  643"                                 case2.csub.obs.csv                                                              
 H0644                                    CONTINUOUS  DELAY-HEAD                     ALL TIMES    "  1  644"                                 case2.csub.obs.csv                                                              
 H0645                                    CONTINUOUS  DELAY-HEAD                     ALL TIMES    "  1  645"                                 case2.csub.obs.csv                                                              
 H0646                                    CONTINUOUS  DELAY-HEAD                     ALL TIMES    "  1  646"                                 case2.csub.obs.csv                                                              
 H0647                                    CONTINUOUS  DELAY-HEAD                     ALL TIMES    "  1  647"                                 case2.csub.obs.csv                                                              
 H0648                                    CONTINUOUS  DELAY-HEAD                     ALL TIMES    "  1  648"                                 case2.csub.obs.csv                                                              
 H0649                                    CONTINUOUS  DELAY-HEAD                     ALL TIMES    "  1  649"                                 case2.csub.obs.csv                                                              
 H0650                                    CONTINUOUS  DELAY-HEAD                     ALL TIMES    "  1  650"                                 case2.csub.obs.csv                                                              
 H0651                                    CONTINUOUS  DELAY-HEAD                     ALL TIMES    "  1  651"                                 case2.csub.obs.csv                                                              
 H0652                                    CONTINUOUS  DELAY-HEAD                     ALL TIMES    "  1  652"                                 case2.csub.obs.csv                                                              
 H0653                                    CONTINUOUS  DELAY-HEAD                     ALL TIMES    "  1  653"                                 case2.csub.obs.csv                                                              
 H0654                                    CONTINUOUS  DELAY-HEAD                     ALL TIMES    "  1  654"                                 case2.csub.obs.csv                                                              
 H0655                                    CONTINUOUS  DELAY-HEAD                     ALL TIMES    "  1  655"                                 case2.csub.obs.csv                                                              
 H0656                                    CONTINUOUS  DELAY-HEAD                     ALL TIMES    "  1  656"                                 case2.csub.obs.csv                                                              
 H0657                                    CONTINUOUS  DELAY-HEAD                     ALL TIMES    "  1  657"                                 case2.csub.obs.csv                                                              
 H0658                                    CONTINUOUS  DELAY-HEAD                     ALL TIMES    "  1  658"                                 case2.csub.obs.csv                                                              
 H0659                                    CONTINUOUS  DELAY-HEAD                     ALL TIMES    "  1  659"                                 case2.csub.obs.csv                                                              
 H0660                                    CONTINUOUS  DELAY-HEAD                     ALL TIMES    "  1  660"                                 case2.csub.obs.csv                                                              
 H0661                                    CONTINUOUS  DELAY-HEAD                     ALL TIMES    "  1  661"                                 case2.csub.obs.csv                                                              
 H0662                                    CONTINUOUS  DELAY-HEAD                     ALL TIMES    "  1  662"                                 case2.csub.obs.csv                                                              
 H0663                                    CONTINUOUS  DELAY-HEAD                     ALL TIMES    "  1  663"                                 case2.csub.obs.csv                                                              
 H0664                                    CONTINUOUS  DELAY-HEAD                     ALL TIMES    "  1  664"                                 case2.csub.obs.csv                                                              
 H0665                                    CONTINUOUS  DELAY-HEAD                     ALL TIMES    "  1  665"                                 case2.csub.obs.csv                                                              
 H0666                                    CONTINUOUS  DELAY-HEAD                     ALL TIMES    "  1  666"                                 case2.csub.obs.csv                                                              
 H0667                                    CONTINUOUS  DELAY-HEAD                     ALL TIMES    "  1  667"                                 case2.csub.obs.csv                                                              
 H0668                                    CONTINUOUS  DELAY-HEAD                     ALL TIMES    "  1  668"                                 case2.csub.obs.csv                                                              
 H0669                                    CONTINUOUS  DELAY-HEAD                     ALL TIMES    "  1  669"                                 case2.csub.obs.csv                                                              
 H0670                                    CONTINUOUS  DELAY-HEAD                     ALL TIMES    "  1  670"                                 case2.csub.obs.csv                                                              
 H0671                                    CONTINUOUS  DELAY-HEAD                     ALL TIMES    "  1  671"                                 case2.csub.obs.csv                                                              
 H0672                                    CONTINUOUS  DELAY-HEAD                     ALL TIMES    "  1  672"                                 case2.csub.obs.csv                                                              
 H0673                                    CONTINUOUS  DELAY-HEAD                     ALL TIMES    "  1  673"                                 case2.csub.obs.csv                                                              
 H0674                                    CONTINUOUS  DELAY-HEAD                     ALL TIMES    "  1  674"                                 case2.csub.obs.csv                                                              
 H0675                                    CONTINUOUS  DELAY-HEAD                     ALL TIMES    "  1  675"                                 case2.csub.obs.csv                                                              
 H0676                                    CONTINUOUS  DELAY-HEAD                     ALL TIMES    "  1  676"                                 case2.csub.obs.csv                                                              
 H0677                                    CONTINUOUS  DELAY-HEAD                     ALL TIMES    "  1  677"                                 case2.csub.obs.csv                                                              
 H0678                                    CONTINUOUS  DELAY-HEAD                     ALL TIMES    "  1  678"                                 case2.csub.obs.csv                                                              
 H0679                                    CONTINUOUS  DELAY-HEAD                     ALL TIMES    "  1  679"                                 case2.csub.obs.csv                                                              
 H0680                                    CONTINUOUS  DELAY-HEAD                     ALL TIMES    "  1  680"                                 case2.csub.obs.csv                                                              
 H0681                                    CONTINUOUS  DELAY-HEAD                     ALL TIMES    "  1  681"                                 case2.csub.obs.csv                                                              
 H0682                                    CONTINUOUS  DELAY-HEAD                     ALL TIMES    "  1  682"                                 case2.csub.obs.csv                                                              
 H0683                                    CONTINUOUS  DELAY-HEAD                     ALL TIMES    "  1  683"                                 case2.csub.obs.csv                                                              
 H0684                                    CONTINUOUS  DELAY-HEAD                     ALL TIMES    "  1  684"                                 case2.csub.obs.csv                                                              
 H0685                                    CONTINUOUS  DELAY-HEAD                     ALL TIMES    "  1  685"                                 case2.csub.obs.csv                                                              
 H0686                                    CONTINUOUS  DELAY-HEAD                     ALL TIMES    "  1  686"                                 case2.csub.obs.csv                                                              
 H0687                                    CONTINUOUS  DELAY-HEAD                     ALL TIMES    "  1  687"                                 case2.csub.obs.csv                                                              
 H0688                                    CONTINUOUS  DELAY-HEAD                     ALL TIMES    "  1  688"                                 case2.csub.obs.csv                                                              
 H0689                                    CONTINUOUS  DELAY-HEAD                     ALL TIMES    "  1  689"                                 case2.csub.obs.csv                                                              
 H0690                                    CONTINUOUS  DELAY-HEAD                     ALL TIMES    "  1  690"                                 case2.csub.obs.csv                                                              
 H0691                                    CONTINUOUS  DELAY-HEAD                     ALL TIMES    "  1  691"                                 case2.csub.obs.csv                                                              
 H0692                                    CONTINUOUS  DELAY-HEAD                     ALL TIMES    "  1  692"                                 case2.csub.obs.csv                                                              
 H0693                                    CONTINUOUS  DELAY-HEAD                     ALL TIMES    "  1  693"                                 case2.csub.obs.csv                                                              
 H0694                                    CONTINUOUS  DELAY-HEAD                     ALL TIMES    "  1  694"                                 case2.csub.obs.csv                                                              
 H0695                                    CONTINUOUS  DELAY-HEAD                     ALL TIMES    "  1  695"                                 case2.csub.obs.csv                                                              
 H0696                                    CONTINUOUS  DELAY-HEAD                     ALL TIMES    "  1  696"                                 case2.csub.obs.csv                                                              
 H0697                                    CONTINUOUS  DELAY-HEAD                     ALL TIMES    "  1  697"                                 case2.csub.obs.csv                                                              
 H0698                                    CONTINUOUS  DELAY-HEAD                     ALL TIMES    "  1  698"                                 case2.csub.obs.csv                                                              
 H0699                                    CONTINUOUS  DELAY-HEAD                     ALL TIMES    "  1  699"                                 case2.csub.obs.csv                                                              
 H0700                                    CONTINUOUS  DELAY-HEAD                     ALL TIMES    "  1  700"                                 case2.csub.obs.csv                                                              
 H0701                                    CONTINUOUS  DELAY-HEAD                     ALL TIMES    "  1  701"                                 case2.csub.obs.csv                                                              
 H0702                                    CONTINUOUS  DELAY-HEAD                     ALL TIMES    "  1  702"                                 case2.csub.obs.csv                                                              
 H0703                                    CONTINUOUS  DELAY-HEAD                     ALL TIMES    "  1  703"                                 case2.csub.obs.csv                                                              
 H0704                                    CONTINUOUS  DELAY-HEAD                     ALL TIMES    "  1  704"                                 case2.csub.obs.csv                                                              
 H0705                                    CONTINUOUS  DELAY-HEAD                     ALL TIMES    "  1  705"                                 case2.csub.obs.csv                                                              
 H0706                                    CONTINUOUS  DELAY-HEAD                     ALL TIMES    "  1  706"                                 case2.csub.obs.csv                                                              
 H0707                                    CONTINUOUS  DELAY-HEAD                     ALL TIMES    "  1  707"                                 case2.csub.obs.csv                                                              
 H0708                                    CONTINUOUS  DELAY-HEAD                     ALL TIMES    "  1  708"                                 case2.csub.obs.csv                                                              
 H0709                                    CONTINUOUS  DELAY-HEAD                     ALL TIMES    "  1  709"                                 case2.csub.obs.csv                                                              
 H0710                                    CONTINUOUS  DELAY-HEAD                     ALL TIMES    "  1  710"                                 case2.csub.obs.csv                                                              
 H0711                                    CONTINUOUS  DELAY-HEAD                     ALL TIMES    "  1  711"                                 case2.csub.obs.csv                                                              
 H0712                                    CONTINUOUS  DELAY-HEAD                     ALL TIMES    "  1  712"                                 case2.csub.obs.csv                                                              
 H0713                                    CONTINUOUS  DELAY-HEAD                     ALL TIMES    "  1  713"                                 case2.csub.obs.csv                                                              
 H0714                                    CONTINUOUS  DELAY-HEAD                     ALL TIMES    "  1  714"                                 case2.csub.obs.csv                                                              
 H0715                                    CONTINUOUS  DELAY-HEAD                     ALL TIMES    "  1  715"                                 case2.csub.obs.csv                                                              
 H0716                                    CONTINUOUS  DELAY-HEAD                     ALL TIMES    "  1  716"                                 case2.csub.obs.csv                                                              
 H0717                                    CONTINUOUS  DELAY-HEAD                     ALL TIMES    "  1  717"                                 case2.csub.obs.csv                                                              
 H0718                                    CONTINUOUS  DELAY-HEAD                     ALL TIMES    "  1  718"                                 case2.csub.obs.csv                                                              
 H0719                                    CONTINUOUS  DELAY-HEAD                     ALL TIMES    "  1  719"                                 case2.csub.obs.csv                                                              
 H0720                                    CONTINUOUS  DELAY-HEAD                     ALL TIMES    "  1  720"                                 case2.csub.obs.csv                                                              
 H0721                                    CONTINUOUS  DELAY-HEAD                     ALL TIMES    "  1  721"                                 case2.csub.obs.csv                                                              
 H0722                                    CONTINUOUS  DELAY-HEAD                     ALL TIMES    "  1  722"                                 case2.csub.obs.csv                                                              
 H0723                                    CONTINUOUS  DELAY-HEAD                     ALL TIMES    "  1  723"                                 case2.csub.obs.csv                                                              
 H0724                                    CONTINUOUS  DELAY-HEAD                     ALL TIMES    "  1  724"                                 case2.csub.obs.csv                                                              
 H0725                                    CONTINUOUS  DELAY-HEAD                     ALL TIMES    "  1  725"                                 case2.csub.obs.csv                                                              
 H0726                                    CONTINUOUS  DELAY-HEAD                     ALL TIMES    "  1  726"                                 case2.csub.obs.csv                                                              
 H0727                                    CONTINUOUS  DELAY-HEAD                     ALL TIMES    "  1  727"                                 case2.csub.obs.csv                                                              
 H0728                                    CONTINUOUS  DELAY-HEAD                     ALL TIMES    "  1  728"                                 case2.csub.obs.csv                                                              
 H0729                                    CONTINUOUS  DELAY-HEAD                     ALL TIMES    "  1  729"                                 case2.csub.obs.csv                                                              
 H0730                                    CONTINUOUS  DELAY-HEAD                     ALL TIMES    "  1  730"                                 case2.csub.obs.csv                                                              
 H0731                                    CONTINUOUS  DELAY-HEAD                     ALL TIMES    "  1  731"                                 case2.csub.obs.csv                                                              
 H0732                                    CONTINUOUS  DELAY-HEAD                     ALL TIMES    "  1  732"                                 case2.csub.obs.csv                                                              
 H0733                                    CONTINUOUS  DELAY-HEAD                     ALL TIMES    "  1  733"                                 case2.csub.obs.csv                                                              
 H0734                                    CONTINUOUS  DELAY-HEAD                     ALL TIMES    "  1  734"                                 case2.csub.obs.csv                                                              
 H0735                                    CONTINUOUS  DELAY-HEAD                     ALL TIMES    "  1  735"                                 case2.csub.obs.csv                                                              
 H0736                                    CONTINUOUS  DELAY-HEAD                     ALL TIMES    "  1  736"                                 case2.csub.obs.csv                                                              
 H0737                                    CONTINUOUS  DELAY-HEAD                     ALL TIMES    "  1  737"                                 case2.csub.obs.csv                                                              
 H0738                                    CONTINUOUS  DELAY-HEAD                     ALL TIMES    "  1  738"                                 case2.csub.obs.csv                                                              
 H0739                                    CONTINUOUS  DELAY-HEAD                     ALL TIMES    "  1  739"                                 case2.csub.obs.csv                                                              
 H0740                                    CONTINUOUS  DELAY-HEAD                     ALL TIMES    "  1  740"                                 case2.csub.obs.csv                                                              
 H0741                                    CONTINUOUS  DELAY-HEAD                     ALL TIMES    "  1  741"                                 case2.csub.obs.csv                                                              
 H0742                                    CONTINUOUS  DELAY-HEAD                     ALL TIMES    "  1  742"                                 case2.csub.obs.csv                                                              
 H0743                                    CONTINUOUS  DELAY-HEAD                     ALL TIMES    "  1  743"                                 case2.csub.obs.csv                                                              
 H0744                                    CONTINUOUS  DELAY-HEAD                     ALL TIMES    "  1  744"                                 case2.csub.obs.csv                                                              
 H0745                                    CONTINUOUS  DELAY-HEAD                     ALL TIMES    "  1  745"                                 case2.csub.obs.csv                                                              
 H0746                                    CONTINUOUS  DELAY-HEAD                     ALL TIMES    "  1  746"                                 case2.csub.obs.csv                                                              
 H0747                                    CONTINUOUS  DELAY-HEAD                     ALL TIMES    "  1  747"                                 case2.csub.obs.csv                                                              
 H0748                                    CONTINUOUS  DELAY-HEAD                     ALL TIMES    "  1  748"                                 case2.csub.obs.csv                                                              
 H0749                                    CONTINUOUS  DELAY-HEAD                     ALL TIMES    "  1  749"                                 case2.csub.obs.csv                                                              
 H0750                                    CONTINUOUS  DELAY-HEAD                     ALL TIMES    "  1  750"                                 case2.csub.obs.csv                                                              
 H0751                                    CONTINUOUS  DELAY-HEAD                     ALL TIMES    "  1  751"                                 case2.csub.obs.csv                                                              
 H0752                                    CONTINUOUS  DELAY-HEAD                     ALL TIMES    "  1  752"                                 case2.csub.obs.csv                                                              
 H0753                                    CONTINUOUS  DELAY-HEAD                     ALL TIMES    "  1  753"                                 case2.csub.obs.csv                                                              
 H0754                                    CONTINUOUS  DELAY-HEAD                     ALL TIMES    "  1  754"                                 case2.csub.obs.csv                                                              
 H0755                                    CONTINUOUS  DELAY-HEAD                     ALL TIMES    "  1  755"                                 case2.csub.obs.csv                                                              
 H0756                                    CONTINUOUS  DELAY-HEAD                     ALL TIMES    "  1  756"                                 case2.csub.obs.csv                                                              
 H0757                                    CONTINUOUS  DELAY-HEAD                     ALL TIMES    "  1  757"                                 case2.csub.obs.csv                                                              
 H0758                                    CONTINUOUS  DELAY-HEAD                     ALL TIMES    "  1  758"                                 case2.csub.obs.csv                                                              
 H0759                                    CONTINUOUS  DELAY-HEAD                     ALL TIMES    "  1  759"                                 case2.csub.obs.csv                                                              
 H0760                                    CONTINUOUS  DELAY-HEAD                     ALL TIMES    "  1  760"                                 case2.csub.obs.csv                                                              
 H0761                                    CONTINUOUS  DELAY-HEAD                     ALL TIMES    "  1  761"                                 case2.csub.obs.csv                                                              
 H0762                                    CONTINUOUS  DELAY-HEAD                     ALL TIMES    "  1  762"                                 case2.csub.obs.csv                                                              
 H0763                                    CONTINUOUS  DELAY-HEAD                     ALL TIMES    "  1  763"                                 case2.csub.obs.csv                                                              
 H0764                                    CONTINUOUS  DELAY-HEAD                     ALL TIMES    "  1  764"                                 case2.csub.obs.csv                                                              
 H0765                                    CONTINUOUS  DELAY-HEAD                     ALL TIMES    "  1  765"                                 case2.csub.obs.csv                                                              
 H0766                                    CONTINUOUS  DELAY-HEAD                     ALL TIMES    "  1  766"                                 case2.csub.obs.csv                                                              
 H0767                                    CONTINUOUS  DELAY-HEAD                     ALL TIMES    "  1  767"                                 case2.csub.obs.csv                                                              
 H0768                                    CONTINUOUS  DELAY-HEAD                     ALL TIMES    "  1  768"                                 case2.csub.obs.csv                                                              
 H0769                                    CONTINUOUS  DELAY-HEAD                     ALL TIMES    "  1  769"                                 case2.csub.obs.csv                                                              
 H0770                                    CONTINUOUS  DELAY-HEAD                     ALL TIMES    "  1  770"                                 case2.csub.obs.csv                                                              
 H0771                                    CONTINUOUS  DELAY-HEAD                     ALL TIMES    "  1  771"                                 case2.csub.obs.csv                                                              
 H0772                                    CONTINUOUS  DELAY-HEAD                     ALL TIMES    "  1  772"                                 case2.csub.obs.csv                                                              
 H0773                                    CONTINUOUS  DELAY-HEAD                     ALL TIMES    "  1  773"                                 case2.csub.obs.csv                                                              
 H0774                                    CONTINUOUS  DELAY-HEAD                     ALL TIMES    "  1  774"                                 case2.csub.obs.csv                                                              
 H0775                                    CONTINUOUS  DELAY-HEAD                     ALL TIMES    "  1  775"                                 case2.csub.obs.csv                                                              
 H0776                                    CONTINUOUS  DELAY-HEAD                     ALL TIMES    "  1  776"                                 case2.csub.obs.csv                                                              
 H0777                                    CONTINUOUS  DELAY-HEAD                     ALL TIMES    "  1  777"                                 case2.csub.obs.csv                                                              
 H0778                                    CONTINUOUS  DELAY-HEAD                     ALL TIMES    "  1  778"                                 case2.csub.obs.csv                                                              
 H0779                                    CONTINUOUS  DELAY-HEAD                     ALL TIMES    "  1  779"                                 case2.csub.obs.csv                                                              
 H0780                                    CONTINUOUS  DELAY-HEAD                     ALL TIMES    "  1  780"                                 case2.csub.obs.csv                                                              
 H0781                                    CONTINUOUS  DELAY-HEAD                     ALL TIMES    "  1  781"                                 case2.csub.obs.csv                                                              
 H0782                                    CONTINUOUS  DELAY-HEAD                     ALL TIMES    "  1  782"                                 case2.csub.obs.csv                                                              
 H0783                                    CONTINUOUS  DELAY-HEAD                     ALL TIMES    "  1  783"                                 case2.csub.obs.csv                                                              
 H0784                                    CONTINUOUS  DELAY-HEAD                     ALL TIMES    "  1  784"                                 case2.csub.obs.csv                                                              
 H0785                                    CONTINUOUS  DELAY-HEAD                     ALL TIMES    "  1  785"                                 case2.csub.obs.csv                                                              
 H0786                                    CONTINUOUS  DELAY-HEAD                     ALL TIMES    "  1  786"                                 case2.csub.obs.csv                                                              
 H0787                                    CONTINUOUS  DELAY-HEAD                     ALL TIMES    "  1  787"                                 case2.csub.obs.csv                                                              
 H0788                                    CONTINUOUS  DELAY-HEAD                     ALL TIMES    "  1  788"                                 case2.csub.obs.csv                                                              
 H0789                                    CONTINUOUS  DELAY-HEAD                     ALL TIMES    "  1  789"                                 case2.csub.obs.csv                                                              
 H0790                                    CONTINUOUS  DELAY-HEAD                     ALL TIMES    "  1  790"                                 case2.csub.obs.csv                                                              
 H0791                                    CONTINUOUS  DELAY-HEAD                     ALL TIMES    "  1  791"                                 case2.csub.obs.csv                                                              
 H0792                                    CONTINUOUS  DELAY-HEAD                     ALL TIMES    "  1  792"                                 case2.csub.obs.csv                                                              
 H0793                                    CONTINUOUS  DELAY-HEAD                     ALL TIMES    "  1  793"                                 case2.csub.obs.csv                                                              
 H0794                                    CONTINUOUS  DELAY-HEAD                     ALL TIMES    "  1  794"                                 case2.csub.obs.csv                                                              
 H0795                                    CONTINUOUS  DELAY-HEAD                     ALL TIMES    "  1  795"                                 case2.csub.obs.csv                                                              
 H0796                                    CONTINUOUS  DELAY-HEAD                     ALL TIMES    "  1  796"                                 case2.csub.obs.csv                                                              
 H0797                                    CONTINUOUS  DELAY-HEAD                     ALL TIMES    "  1  797"                                 case2.csub.obs.csv                                                              
 H0798                                    CONTINUOUS  DELAY-HEAD                     ALL TIMES    "  1  798"                                 case2.csub.obs.csv                                                              
 H0799                                    CONTINUOUS  DELAY-HEAD                     ALL TIMES    "  1  799"                                 case2.csub.obs.csv                                                              
 H0800                                    CONTINUOUS  DELAY-HEAD                     ALL TIMES    "  1  800"                                 case2.csub.obs.csv                                                              
 H0801                                    CONTINUOUS  DELAY-HEAD                     ALL TIMES    "  1  801"                                 case2.csub.obs.csv                                                              
 H0802                                    CONTINUOUS  DELAY-HEAD                     ALL TIMES    "  1  802"                                 case2.csub.obs.csv                                                              
 H0803                                    CONTINUOUS  DELAY-HEAD                     ALL TIMES    "  1  803"                                 case2.csub.obs.csv                                                              
 H0804                                    CONTINUOUS  DELAY-HEAD                     ALL TIMES    "  1  804"                                 case2.csub.obs.csv                                                              
 H0805                                    CONTINUOUS  DELAY-HEAD                     ALL TIMES    "  1  805"                                 case2.csub.obs.csv                                                              
 H0806                                    CONTINUOUS  DELAY-HEAD                     ALL TIMES    "  1  806"                                 case2.csub.obs.csv                                                              
 H0807                                    CONTINUOUS  DELAY-HEAD                     ALL TIMES    "  1  807"                                 case2.csub.obs.csv                                                              
 H0808                                    CONTINUOUS  DELAY-HEAD                     ALL TIMES    "  1  808"                                 case2.csub.obs.csv                                                              
 H0809                                    CONTINUOUS  DELAY-HEAD                     ALL TIMES    "  1  809"                                 case2.csub.obs.csv                                                              
 H0810                                    CONTINUOUS  DELAY-HEAD                     ALL TIMES    "  1  810"                                 case2.csub.obs.csv                                                              
 H0811                                    CONTINUOUS  DELAY-HEAD                     ALL TIMES    "  1  811"                                 case2.csub.obs.csv                                                              
 H0812                                    CONTINUOUS  DELAY-HEAD                     ALL TIMES    "  1  812"                                 case2.csub.obs.csv                                                              
 H0813                                    CONTINUOUS  DELAY-HEAD                     ALL TIMES    "  1  813"                                 case2.csub.obs.csv                                                              
 H0814                                    CONTINUOUS  DELAY-HEAD                     ALL TIMES    "  1  814"                                 case2.csub.obs.csv                                                              
 H0815                                    CONTINUOUS  DELAY-HEAD                     ALL TIMES    "  1  815"                                 case2.csub.obs.csv                                                              
 H0816                                    CONTINUOUS  DELAY-HEAD                     ALL TIMES    "  1  816"                                 case2.csub.obs.csv                                                              
 H0817                                    CONTINUOUS  DELAY-HEAD                     ALL TIMES    "  1  817"                                 case2.csub.obs.csv                                                              
 H0818                                    CONTINUOUS  DELAY-HEAD                     ALL TIMES    "  1  818"                                 case2.csub.obs.csv                                                              
 H0819                                    CONTINUOUS  DELAY-HEAD                     ALL TIMES    "  1  819"                                 case2.csub.obs.csv                                                              
 H0820                                    CONTINUOUS  DELAY-HEAD                     ALL TIMES    "  1  820"                                 case2.csub.obs.csv                                                              
 H0821                                    CONTINUOUS  DELAY-HEAD                     ALL TIMES    "  1  821"                                 case2.csub.obs.csv                                                              
 H0822                                    CONTINUOUS  DELAY-HEAD                     ALL TIMES    "  1  822"                                 case2.csub.obs.csv                                                              
 H0823                                    CONTINUOUS  DELAY-HEAD                     ALL TIMES    "  1  823"                                 case2.csub.obs.csv                                                              
 H0824                                    CONTINUOUS  DELAY-HEAD                     ALL TIMES    "  1  824"                                 case2.csub.obs.csv                                                              
 H0825                                    CONTINUOUS  DELAY-HEAD                     ALL TIMES    "  1  825"                                 case2.csub.obs.csv                                                              
 H0826                                    CONTINUOUS  DELAY-HEAD                     ALL TIMES    "  1  826"                                 case2.csub.obs.csv                                                              
 H0827                                    CONTINUOUS  DELAY-HEAD                     ALL TIMES    "  1  827"                                 case2.csub.obs.csv                                                              
 H0828                                    CONTINUOUS  DELAY-HEAD                     ALL TIMES    "  1  828"                                 case2.csub.obs.csv                                                              
 H0829                                    CONTINUOUS  DELAY-HEAD                     ALL TIMES    "  1  829"                                 case2.csub.obs.csv                                                              
 H0830                                    CONTINUOUS  DELAY-HEAD                     ALL TIMES    "  1  830"                                 case2.csub.obs.csv                                                              
 H0831                                    CONTINUOUS  DELAY-HEAD                     ALL TIMES    "  1  831"                                 case2.csub.obs.csv                                                              
 H0832                                    CONTINUOUS  DELAY-HEAD                     ALL TIMES    "  1  832"                                 case2.csub.obs.csv                                                              
 H0833                                    CONTINUOUS  DELAY-HEAD                     ALL TIMES    "  1  833"                                 case2.csub.obs.csv                                                              
 H0834                                    CONTINUOUS  DELAY-HEAD                     ALL TIMES    "  1  834"                                 case2.csub.obs.csv                                                              
 H0835                                    CONTINUOUS  DELAY-HEAD                     ALL TIMES    "  1  835"                                 case2.csub.obs.csv                                                              
 H0836                                    CONTINUOUS  DELAY-HEAD                     ALL TIMES    "  1  836"                                 case2.csub.obs.csv                                                              
 H0837                                    CONTINUOUS  DELAY-HEAD                     ALL TIMES    "  1  837"                                 case2.csub.obs.csv                                                              
 H0838                                    CONTINUOUS  DELAY-HEAD                     ALL TIMES    "  1  838"                                 case2.csub.obs.csv                                                              
 H0839                                    CONTINUOUS  DELAY-HEAD                     ALL TIMES    "  1  839"                                 case2.csub.obs.csv                                                              
 H0840                                    CONTINUOUS  DELAY-HEAD                     ALL TIMES    "  1  840"                                 case2.csub.obs.csv                                                              
 H0841                                    CONTINUOUS  DELAY-HEAD                     ALL TIMES    "  1  841"                                 case2.csub.obs.csv                                                              
 H0842                                    CONTINUOUS  DELAY-HEAD                     ALL TIMES    "  1  842"                                 case2.csub.obs.csv                                                              
 H0843                                    CONTINUOUS  DELAY-HEAD                     ALL TIMES    "  1  843"                                 case2.csub.obs.csv                                                              
 H0844                                    CONTINUOUS  DELAY-HEAD                     ALL TIMES    "  1  844"                                 case2.csub.obs.csv                                                              
 H0845                                    CONTINUOUS  DELAY-HEAD                     ALL TIMES    "  1  845"                                 case2.csub.obs.csv                                                              
 H0846                                    CONTINUOUS  DELAY-HEAD                     ALL TIMES    "  1  846"                                 case2.csub.obs.csv                                                              
 H0847                                    CONTINUOUS  DELAY-HEAD                     ALL TIMES    "  1  847"                                 case2.csub.obs.csv                                                              
 H0848                                    CONTINUOUS  DELAY-HEAD                     ALL TIMES    "  1  848"                                 case2.csub.obs.csv                                                              
 H0849                                    CONTINUOUS  DELAY-HEAD                     ALL TIMES    "  1  849"                                 case2.csub.obs.csv                                                              
 H0850                                    CONTINUOUS  DELAY-HEAD                     ALL TIMES    "  1  850"                                 case2.csub.obs.csv                                                              
 H0851                                    CONTINUOUS  DELAY-HEAD                     ALL TIMES    "  1  851"                                 case2.csub.obs.csv                                                              
 H0852                                    CONTINUOUS  DELAY-HEAD                     ALL TIMES    "  1  852"                                 case2.csub.obs.csv                                                              
 H0853                                    CONTINUOUS  DELAY-HEAD                     ALL TIMES    "  1  853"                                 case2.csub.obs.csv                                                              
 H0854                                    CONTINUOUS  DELAY-HEAD                     ALL TIMES    "  1  854"                                 case2.csub.obs.csv                                                              
 H0855                                    CONTINUOUS  DELAY-HEAD                     ALL TIMES    "  1  855"                                 case2.csub.obs.csv                                                              
 H0856                                    CONTINUOUS  DELAY-HEAD                     ALL TIMES    "  1  856"                                 case2.csub.obs.csv                                                              
 H0857                                    CONTINUOUS  DELAY-HEAD                     ALL TIMES    "  1  857"                                 case2.csub.obs.csv                                                              
 H0858                                    CONTINUOUS  DELAY-HEAD                     ALL TIMES    "  1  858"                                 case2.csub.obs.csv                                                              
 H0859                                    CONTINUOUS  DELAY-HEAD                     ALL TIMES    "  1  859"                                 case2.csub.obs.csv                                                              
 H0860                                    CONTINUOUS  DELAY-HEAD                     ALL TIMES    "  1  860"                                 case2.csub.obs.csv                                                              
 H0861                                    CONTINUOUS  DELAY-HEAD                     ALL TIMES    "  1  861"                                 case2.csub.obs.csv                                                              
 H0862                                    CONTINUOUS  DELAY-HEAD                     ALL TIMES    "  1  862"                                 case2.csub.obs.csv                                                              
 H0863                                    CONTINUOUS  DELAY-HEAD                     ALL TIMES    "  1  863"                                 case2.csub.obs.csv                                                              
 H0864                                    CONTINUOUS  DELAY-HEAD                     ALL TIMES    "  1  864"                                 case2.csub.obs.csv                                                              
 H0865                                    CONTINUOUS  DELAY-HEAD                     ALL TIMES    "  1  865"                                 case2.csub.obs.csv                                                              
 H0866                                    CONTINUOUS  DELAY-HEAD                     ALL TIMES    "  1  866"                                 case2.csub.obs.csv                                                              
 H0867                                    CONTINUOUS  DELAY-HEAD                     ALL TIMES    "  1  867"                                 case2.csub.obs.csv                                                              
 H0868                                    CONTINUOUS  DELAY-HEAD                     ALL TIMES    "  1  868"                                 case2.csub.obs.csv                                                              
 H0869                                    CONTINUOUS  DELAY-HEAD                     ALL TIMES    "  1  869"                                 case2.csub.obs.csv                                                              
 H0870                                    CONTINUOUS  DELAY-HEAD                     ALL TIMES    "  1  870"                                 case2.csub.obs.csv                                                              
 H0871                                    CONTINUOUS  DELAY-HEAD                     ALL TIMES    "  1  871"                                 case2.csub.obs.csv                                                              
 H0872                                    CONTINUOUS  DELAY-HEAD                     ALL TIMES    "  1  872"                                 case2.csub.obs.csv                                                              
 H0873                                    CONTINUOUS  DELAY-HEAD                     ALL TIMES    "  1  873"                                 case2.csub.obs.csv                                                              
 H0874                                    CONTINUOUS  DELAY-HEAD                     ALL TIMES    "  1  874"                                 case2.csub.obs.csv                                                              
 H0875                                    CONTINUOUS  DELAY-HEAD                     ALL TIMES    "  1  875"                                 case2.csub.obs.csv                                                              
 H0876                                    CONTINUOUS  DELAY-HEAD                     ALL TIMES    "  1  876"                                 case2.csub.obs.csv                                                              
 H0877                                    CONTINUOUS  DELAY-HEAD                     ALL TIMES    "  1  877"                                 case2.csub.obs.csv                                                              
 H0878                                    CONTINUOUS  DELAY-HEAD                     ALL TIMES    "  1  878"                                 case2.csub.obs.csv                                                              
 H0879                                    CONTINUOUS  DELAY-HEAD                     ALL TIMES    "  1  879"                                 case2.csub.obs.csv                                                              
 H0880                                    CONTINUOUS  DELAY-HEAD                     ALL TIMES    "  1  880"                                 case2.csub.obs.csv                                                              
 H0881                                    CONTINUOUS  DELAY-HEAD                     ALL TIMES    "  1  881"                                 case2.csub.obs.csv                                                              
 H0882                                    CONTINUOUS  DELAY-HEAD                     ALL TIMES    "  1  882"                                 case2.csub.obs.csv                                                              
 H0883                                    CONTINUOUS  DELAY-HEAD                     ALL TIMES    "  1  883"                                 case2.csub.obs.csv                                                              
 H0884                                    CONTINUOUS  DELAY-HEAD                     ALL TIMES    "  1  884"                                 case2.csub.obs.csv                                                              
 H0885                                    CONTINUOUS  DELAY-HEAD                     ALL TIMES    "  1  885"                                 case2.csub.obs.csv                                                              
 H0886                                    CONTINUOUS  DELAY-HEAD                     ALL TIMES    "  1  886"                                 case2.csub.obs.csv                                                              
 H0887                                    CONTINUOUS  DELAY-HEAD                     ALL TIMES    "  1  887"                                 case2.csub.obs.csv                                                              
 H0888                                    CONTINUOUS  DELAY-HEAD                     ALL TIMES    "  1  888"                                 case2.csub.obs.csv                                                              
 H0889                                    CONTINUOUS  DELAY-HEAD                     ALL TIMES    "  1  889"                                 case2.csub.obs.csv                                                              
 H0890                                    CONTINUOUS  DELAY-HEAD                     ALL TIMES    "  1  890"                                 case2.csub.obs.csv                                                              
 H0891                                    CONTINUOUS  DELAY-HEAD                     ALL TIMES    "  1  891"                                 case2.csub.obs.csv                                                              
 H0892                                    CONTINUOUS  DELAY-HEAD                     ALL TIMES    "  1  892"                                 case2.csub.obs.csv                                                              
 H0893                                    CONTINUOUS  DELAY-HEAD                     ALL TIMES    "  1  893"                                 case2.csub.obs.csv                                                              
 H0894                                    CONTINUOUS  DELAY-HEAD                     ALL TIMES    "  1  894"                                 case2.csub.obs.csv                                                              
 H0895                                    CONTINUOUS  DELAY-HEAD                     ALL TIMES    "  1  895"                                 case2.csub.obs.csv                                                              
 H0896                                    CONTINUOUS  DELAY-HEAD                     ALL TIMES    "  1  896"                                 case2.csub.obs.csv                                                              
 H0897                                    CONTINUOUS  DELAY-HEAD                     ALL TIMES    "  1  897"                                 case2.csub.obs.csv                                                              
 H0898                                    CONTINUOUS  DELAY-HEAD                     ALL TIMES    "  1  898"                                 case2.csub.obs.csv                                                              
 H0899                                    CONTINUOUS  DELAY-HEAD                     ALL TIMES    "  1  899"                                 case2.csub.obs.csv                                                              
 H0900                                    CONTINUOUS  DELAY-HEAD                     ALL TIMES    "  1  900"                                 case2.csub.obs.csv                                                              
 H0901                                    CONTINUOUS  DELAY-HEAD                     ALL TIMES    "  1  901"                                 case2.csub.obs.csv                                                              
 H0902                                    CONTINUOUS  DELAY-HEAD                     ALL TIMES    "  1  902"                                 case2.csub.obs.csv                                                              
 H0903                                    CONTINUOUS  DELAY-HEAD                     ALL TIMES    "  1  903"                                 case2.csub.obs.csv                                                              
 H0904                                    CONTINUOUS  DELAY-HEAD                     ALL TIMES    "  1  904"                                 case2.csub.obs.csv                                                              
 H0905                                    CONTINUOUS  DELAY-HEAD                     ALL TIMES    "  1  905"                                 case2.csub.obs.csv                                                              
 H0906                                    CONTINUOUS  DELAY-HEAD                     ALL TIMES    "  1  906"                                 case2.csub.obs.csv                                                              
 H0907                                    CONTINUOUS  DELAY-HEAD                     ALL TIMES    "  1  907"                                 case2.csub.obs.csv                                                              
 H0908                                    CONTINUOUS  DELAY-HEAD                     ALL TIMES    "  1  908"                                 case2.csub.obs.csv                                                              
 H0909                                    CONTINUOUS  DELAY-HEAD                     ALL TIMES    "  1  909"                                 case2.csub.obs.csv                                                              
 H0910                                    CONTINUOUS  DELAY-HEAD                     ALL TIMES    "  1  910"                                 case2.csub.obs.csv                                                              
 H0911                                    CONTINUOUS  DELAY-HEAD                     ALL TIMES    "  1  911"                                 case2.csub.obs.csv                                                              
 H0912                                    CONTINUOUS  DELAY-HEAD                     ALL TIMES    "  1  912"                                 case2.csub.obs.csv                                                              
 H0913                                    CONTINUOUS  DELAY-HEAD                     ALL TIMES    "  1  913"                                 case2.csub.obs.csv                                                              
 H0914                                    CONTINUOUS  DELAY-HEAD                     ALL TIMES    "  1  914"                                 case2.csub.obs.csv                                                              
 H0915                                    CONTINUOUS  DELAY-HEAD                     ALL TIMES    "  1  915"                                 case2.csub.obs.csv                                                              
 H0916                                    CONTINUOUS  DELAY-HEAD                     ALL TIMES    "  1  916"                                 case2.csub.obs.csv                                                              
 H0917                                    CONTINUOUS  DELAY-HEAD                     ALL TIMES    "  1  917"                                 case2.csub.obs.csv                                                              
 H0918                                    CONTINUOUS  DELAY-HEAD                     ALL TIMES    "  1  918"                                 case2.csub.obs.csv                                                              
 H0919                                    CONTINUOUS  DELAY-HEAD                     ALL TIMES    "  1  919"                                 case2.csub.obs.csv                                                              
 H0920                                    CONTINUOUS  DELAY-HEAD                     ALL TIMES    "  1  920"                                 case2.csub.obs.csv                                                              
 H0921                                    CONTINUOUS  DELAY-HEAD                     ALL TIMES    "  1  921"                                 case2.csub.obs.csv                                                              
 H0922                                    CONTINUOUS  DELAY-HEAD                     ALL TIMES    "  1  922"                                 case2.csub.obs.csv                                                              
 H0923                                    CONTINUOUS  DELAY-HEAD                     ALL TIMES    "  1  923"                                 case2.csub.obs.csv                                                              
 H0924                                    CONTINUOUS  DELAY-HEAD                     ALL TIMES    "  1  924"                                 case2.csub.obs.csv                                                              
 H0925                                    CONTINUOUS  DELAY-HEAD                     ALL TIMES    "  1  925"                                 case2.csub.obs.csv                                                              
 H0926                                    CONTINUOUS  DELAY-HEAD                     ALL TIMES    "  1  926"                                 case2.csub.obs.csv                                                              
 H0927                                    CONTINUOUS  DELAY-HEAD                     ALL TIMES    "  1  927"                                 case2.csub.obs.csv                                                              
 H0928                                    CONTINUOUS  DELAY-HEAD                     ALL TIMES    "  1  928"                                 case2.csub.obs.csv                                                              
 H0929                                    CONTINUOUS  DELAY-HEAD                     ALL TIMES    "  1  929"                                 case2.csub.obs.csv                                                              
 H0930                                    CONTINUOUS  DELAY-HEAD                     ALL TIMES    "  1  930"                                 case2.csub.obs.csv                                                              
 H0931                                    CONTINUOUS  DELAY-HEAD                     ALL TIMES    "  1  931"                                 case2.csub.obs.csv                                                              
 H0932                                    CONTINUOUS  DELAY-HEAD                     ALL TIMES    "  1  932"                                 case2.csub.obs.csv                                                              
 H0933                                    CONTINUOUS  DELAY-HEAD                     ALL TIMES    "  1  933"                                 case2.csub.obs.csv                                                              
 H0934                                    CONTINUOUS  DELAY-HEAD                     ALL TIMES    "  1  934"                                 case2.csub.obs.csv                                                              
 H0935                                    CONTINUOUS  DELAY-HEAD                     ALL TIMES    "  1  935"                                 case2.csub.obs.csv                                                              
 H0936                                    CONTINUOUS  DELAY-HEAD                     ALL TIMES    "  1  936"                                 case2.csub.obs.csv                                                              
 H0937                                    CONTINUOUS  DELAY-HEAD                     ALL TIMES    "  1  937"                                 case2.csub.obs.csv                                                              
 H0938                                    CONTINUOUS  DELAY-HEAD                     ALL TIMES    "  1  938"                                 case2.csub.obs.csv                                                              
 H0939                                    CONTINUOUS  DELAY-HEAD                     ALL TIMES    "  1  939"                                 case2.csub.obs.csv                                                              
 H0940                                    CONTINUOUS  DELAY-HEAD                     ALL TIMES    "  1  940"                                 case2.csub.obs.csv                                                              
 H0941                                    CONTINUOUS  DELAY-HEAD                     ALL TIMES    "  1  941"                                 case2.csub.obs.csv                                                              
 H0942                                    CONTINUOUS  DELAY-HEAD                     ALL TIMES    "  1  942"                                 case2.csub.obs.csv                                                              
 H0943                                    CONTINUOUS  DELAY-HEAD                     ALL TIMES    "  1  943"                                 case2.csub.obs.csv                                                              
 H0944                                    CONTINUOUS  DELAY-HEAD                     ALL TIMES    "  1  944"                                 case2.csub.obs.csv                                                              
 H0945                                    CONTINUOUS  DELAY-HEAD                     ALL TIMES    "  1  945"                                 case2.csub.obs.csv                                                              
 H0946                                    CONTINUOUS  DELAY-HEAD                     ALL TIMES    "  1  946"                                 case2.csub.obs.csv                                                              
 H0947                                    CONTINUOUS  DELAY-HEAD                     ALL TIMES    "  1  947"                                 case2.csub.obs.csv                                                              
 H0948                                    CONTINUOUS  DELAY-HEAD                     ALL TIMES    "  1  948"                                 case2.csub.obs.csv                                                              
 H0949                                    CONTINUOUS  DELAY-HEAD                     ALL TIMES    "  1  949"                                 case2.csub.obs.csv                                                              
 H0950                                    CONTINUOUS  DELAY-HEAD                     ALL TIMES    "  1  950"                                 case2.csub.obs.csv                                                              
 H0951                                    CONTINUOUS  DELAY-HEAD                     ALL TIMES    "  1  951"                                 case2.csub.obs.csv                                                              
 H0952                                    CONTINUOUS  DELAY-HEAD                     ALL TIMES    "  1  952"                                 case2.csub.obs.csv                                                              
 H0953                                    CONTINUOUS  DELAY-HEAD                     ALL TIMES    "  1  953"                                 case2.csub.obs.csv                                                              
 H0954                                    CONTINUOUS  DELAY-HEAD                     ALL TIMES    "  1  954"                                 case2.csub.obs.csv                                                              
 H0955                                    CONTINUOUS  DELAY-HEAD                     ALL TIMES    "  1  955"                                 case2.csub.obs.csv                                                              
 H0956                                    CONTINUOUS  DELAY-HEAD                     ALL TIMES    "  1  956"                                 case2.csub.obs.csv                                                              
 H0957                                    CONTINUOUS  DELAY-HEAD                     ALL TIMES    "  1  957"                                 case2.csub.obs.csv                                                              
 H0958                                    CONTINUOUS  DELAY-HEAD                     ALL TIMES    "  1  958"                                 case2.csub.obs.csv                                                              
 H0959                                    CONTINUOUS  DELAY-HEAD                     ALL TIMES    "  1  959"                                 case2.csub.obs.csv                                                              
 H0960                                    CONTINUOUS  DELAY-HEAD                     ALL TIMES    "  1  960"                                 case2.csub.obs.csv                                                              
 H0961                                    CONTINUOUS  DELAY-HEAD                     ALL TIMES    "  1  961"                                 case2.csub.obs.csv                                                              
 H0962                                    CONTINUOUS  DELAY-HEAD                     ALL TIMES    "  1  962"                                 case2.csub.obs.csv                                                              
 H0963                                    CONTINUOUS  DELAY-HEAD                     ALL TIMES    "  1  963"                                 case2.csub.obs.csv                                                              
 H0964                                    CONTINUOUS  DELAY-HEAD                     ALL TIMES    "  1  964"                                 case2.csub.obs.csv                                                              
 H0965                                    CONTINUOUS  DELAY-HEAD                     ALL TIMES    "  1  965"                                 case2.csub.obs.csv                                                              
 H0966                                    CONTINUOUS  DELAY-HEAD                     ALL TIMES    "  1  966"                                 case2.csub.obs.csv                                                              
 H0967                                    CONTINUOUS  DELAY-HEAD                     ALL TIMES    "  1  967"                                 case2.csub.obs.csv                                                              
 H0968                                    CONTINUOUS  DELAY-HEAD                     ALL TIMES    "  1  968"                                 case2.csub.obs.csv                                                              
 H0969                                    CONTINUOUS  DELAY-HEAD                     ALL TIMES    "  1  969"                                 case2.csub.obs.csv                                                              
 H0970                                    CONTINUOUS  DELAY-HEAD                     ALL TIMES    "  1  970"                                 case2.csub.obs.csv                                                              
 H0971                                    CONTINUOUS  DELAY-HEAD                     ALL TIMES    "  1  971"                                 case2.csub.obs.csv                                                              
 H0972                                    CONTINUOUS  DELAY-HEAD                     ALL TIMES    "  1  972"                                 case2.csub.obs.csv                                                              
 H0973                                    CONTINUOUS  DELAY-HEAD                     ALL TIMES    "  1  973"                                 case2.csub.obs.csv                                                              
 H0974                                    CONTINUOUS  DELAY-HEAD                     ALL TIMES    "  1  974"                                 case2.csub.obs.csv                                                              
 H0975                                    CONTINUOUS  DELAY-HEAD                     ALL TIMES    "  1  975"                                 case2.csub.obs.csv                                                              
 H0976                                    CONTINUOUS  DELAY-HEAD                     ALL TIMES    "  1  976"                                 case2.csub.obs.csv                                                              
 H0977                                    CONTINUOUS  DELAY-HEAD                     ALL TIMES    "  1  977"                                 case2.csub.obs.csv                                                              
 H0978                                    CONTINUOUS  DELAY-HEAD                     ALL TIMES    "  1  978"                                 case2.csub.obs.csv                                                              
 H0979                                    CONTINUOUS  DELAY-HEAD                     ALL TIMES    "  1  979"                                 case2.csub.obs.csv                                                              
 H0980                                    CONTINUOUS  DELAY-HEAD                     ALL TIMES    "  1  980"                                 case2.csub.obs.csv                                                              
 H0981                                    CONTINUOUS  DELAY-HEAD                     ALL TIMES    "  1  981"                                 case2.csub.obs.csv                                                              
 H0982                                    CONTINUOUS  DELAY-HEAD                     ALL TIMES    "  1  982"                                 case2.csub.obs.csv                                                              
 H0983                                    CONTINUOUS  DELAY-HEAD                     ALL TIMES    "  1  983"                                 case2.csub.obs.csv                                                              
 H0984                                    CONTINUOUS  DELAY-HEAD                     ALL TIMES    "  1  984"                                 case2.csub.obs.csv                                                              
 H0985                                    CONTINUOUS  DELAY-HEAD                     ALL TIMES    "  1  985"                                 case2.csub.obs.csv                                                              
 H0986                                    CONTINUOUS  DELAY-HEAD                     ALL TIMES    "  1  986"                                 case2.csub.obs.csv                                                              
 H0987                                    CONTINUOUS  DELAY-HEAD                     ALL TIMES    "  1  987"                                 case2.csub.obs.csv                                                              
 H0988                                    CONTINUOUS  DELAY-HEAD                     ALL TIMES    "  1  988"                                 case2.csub.obs.csv                                                              
 H0989                                    CONTINUOUS  DELAY-HEAD                     ALL TIMES    "  1  989"                                 case2.csub.obs.csv                                                              
 H0990                                    CONTINUOUS  DELAY-HEAD                     ALL TIMES    "  1  990"                                 case2.csub.obs.csv                                                              
 H0991                                    CONTINUOUS  DELAY-HEAD                     ALL TIMES    "  1  991"                                 case2.csub.obs.csv                                                              
 H0992                                    CONTINUOUS  DELAY-HEAD                     ALL TIMES    "  1  992"                                 case2.csub.obs.csv                                                              
 H0993                                    CONTINUOUS  DELAY-HEAD                     ALL TIMES    "  1  993"                                 case2.csub.obs.csv                                                              
 H0994                                    CONTINUOUS  DELAY-HEAD                     ALL TIMES    "  1  994"                                 case2.csub.obs.csv                                                              
 H0995                                    CONTINUOUS  DELAY-HEAD                     ALL TIMES    "  1  995"                                 case2.csub.obs.csv                                                              
 H0996                                    CONTINUOUS  DELAY-HEAD                     ALL TIMES    "  1  996"                                 case2.csub.obs.csv                                                              
 H0997                                    CONTINUOUS  DELAY-HEAD                     ALL TIMES    "  1  997"                                 case2.csub.obs.csv                                                              
 H0998                                    CONTINUOUS  DELAY-HEAD                     ALL TIMES    "  1  998"                                 case2.csub.obs.csv                                                              
 H0999                                    CONTINUOUS  DELAY-HEAD                     ALL TIMES    "  1  999"                                 case2.csub.obs.csv                                                              
 H1000                                    CONTINUOUS  DELAY-HEAD                     ALL TIMES    "  1  1000"                                case2.csub.obs.csv                                                              
 H1001                                    CONTINUOUS  DELAY-HEAD                     ALL TIMES    "  1  1001"                                case2.csub.obs.csv                                                              
 EST                                      CONTINUOUS  DELAY-ESTRESS                  ALL TIMES    "  1  1"                                   case2.csub.obs.csv                                                              
 ESM                                      CONTINUOUS  DELAY-ESTRESS                  ALL TIMES    "  1  11"                                  case2.csub.obs.csv                                                              
 ESB                                      CONTINUOUS  DELAY-ESTRESS                  ALL TIMES    "  1  19"                                  case2.csub.obs.csv                                                              
 PST                                      CONTINUOUS  DELAY-PRECONSTRESS             ALL TIMES    "  1 1"                                    case2.csub.obs.csv                                                              
 PSM                                      CONTINUOUS  DELAY-PRECONSTRESS             ALL TIMES    "  1 11"                                   case2.csub.obs.csv                                                              
 PSB                                      CONTINUOUS  DELAY-PRECONSTRESS             ALL TIMES    "  1 19"                                   case2.csub.obs.csv                                                              
 GS                                       CONTINUOUS  GSTRESS-CELL                   ALL TIMES    "  1 1 2"                                  case2.csub.obs.csv                                                              
 ES                                       CONTINUOUS  ESTRESS-CELL                   ALL TIMES    "  1 1 2"                                  case2.csub.obs.csv                                                              
 ----------------------------------------------------------------------------------------------------------------------------------------------------------------------------------------------------------------------------



 CG_SKE_CR =   0.000000    

 CG_THETA =  0.2000000    

 SGM =   1.700000    

 SGS =   2.000000    

 PROCESSING CSUB PACKAGEDATA
 END OF CSUB PACKAGEDATA

 CSUB PACKAGE INTERBED DATA
 ---------------------------------------------------------------------------------------------------------------------------------------------------------------------------
 INTERBED          CELLID          CDELAY      PCS       THICK       RNB       SSV_CC     SSV_CR     THETA        KV         H0     BOUNDNAME                               
 ---------------------------------------------------------------------------------------------------------------------------------------------------------------------------
 1                (1,1,2)          DELAY    -10.0       100.       1.00       1.000E-02  1.000E-05  0.450      1.000E-03  100.      IB1                                     
 ---------------------------------------------------------------------------------------------------------------------------------------------------------------------------



The observation utility is active for "CASE2"
 # File generated by Flopy version 3.6.0.dev0 on 02/07/2024 at 20:14:53.

Processing observation options:

Text output number of digits of precision set to: 10
The PRINT_INPUT option has been specified.


 OBSERVATIONS READ FROM FILE "case2.obs"
 ----------------------------------------------------------------------------------------------------------------------------------------------------------------------------------------------------------------------------
 NAME                                     TYPE                                       TIME         LOCATION DATA                              OUTPUT FILENAME                                                                 
 ----------------------------------------------------------------------------------------------------------------------------------------------------------------------------------------------------------------------------
 H1_1_2                                   CONTINUOUS  HEAD                           ALL TIMES    "  1 1 2"                                  gwf_obs.csv                                                                     
 ----------------------------------------------------------------------------------------------------------------------------------------------------------------------------------------------------------------------------


    BINARY GRID INFORMATION WILL BE WRITTEN TO:
      UNIT NUMBER: 1017
      FILE NAME: case2.dis.grb

 OPENED case2.dis.grb
 FILE TYPE:DATA(BINARY)   UNIT 1017   STATUS:REPLACE             
 FORMAT:UNFORMATTED            ACCESS:STREAM              
 ACTION:READWRITE           

      THE LAST TIME STEP WILL BE PRINTED
      THE LAST TIME STEP WILL BE PRINTED
 # File generated by Flopy version 3.6.0.dev0 on 02/07/2024 at 20:14:53.

 PROCESSING OC OPTIONS

 END OF OC OPTIONS

start timestep kper="1" kstp="1" mode="normal"


 BEGIN READING OUTPUT CONTROL FOR STRESS PERIOD 1
      ALL TIME STEPS WILL BE PRINTED

 END READING OUTPUT CONTROL FOR STRESS PERIOD 1


 PROCESSING STORAGE PERIOD DATA
 END PROCESSING STORAGE PERIOD DATA


 STRESS PERIOD 1 IS TRANSIENT


 REUSING CSUBS FROM LAST STRESS PERIOD

 CSUB PACKAGE CALCULATED INITIAL INTERBED STRESSES AT THE CELL BOTTOM
 ---------------------------------------------------------------------------------------------------------------------------
 INTERBED                                                          PRECONSOLIDATION                                         
 NUMBER            CELLID        GEOSTATIC STRESS EFFECTIVE STRESS      STRESS      BOUNDNAME                               
 ---------------------------------------------------------------------------------------------------------------------------
 1                (1,1,2)         2000.00000       1000.00000       990.000000      IB1                                     
 ---------------------------------------------------------------------------------------------------------------------------



 CSUB PACKAGE CALCULATED INITIAL DELAY INTERBED STRESSES
 --------------------------------------------------------------------------------------------------------------------------------------
 INTERBED                                                                     PRECONSOLIDATION                                         
 NUMBER            CELLID        DELAY CELL GEOSTATIC STRESS EFFECTIVE STRESS      STRESS      BOUNDNAME                               
 --------------------------------------------------------------------------------------------------------------------------------------
 1                (1,1,2)        1           1800.19980       800.099900       890.099900      IB1                                     
                                 2           1800.39960       800.199800       890.199800                                              
                                 3           1800.59940       800.299700       890.299700                                              
                                 4           1800.79920       800.399600       890.399600                                              
                                 5           1800.99900       800.499500       890.499500                                              
                                 6           1801.19880       800.599401       890.599401                                              
                                 7           1801.39860       800.699301       890.699301                                              
                                 8           1801.59840       800.799201       890.799201                                              
                                 9           1801.79820       800.899101       890.899101                                              
                                 10          1801.99800       800.999001       890.999001                                              
                                 11          1802.19780       801.098901       891.098901                                              
                                 12          1802.39760       801.198801       891.198801                                              
                                 13          1802.59740       801.298701       891.298701                                              
                                 14          1802.79720       801.398601       891.398601                                              
                                 15          1802.99700       801.498501       891.498501                                              
                                 16          1803.19680       801.598402       891.598402                                              
                                 17          1803.39660       801.698302       891.698302                                              
                                 18          1803.59640       801.798202       891.798202                                              
                                 19          1803.79620       801.898102       891.898102                                              
                                 20          1803.99600       801.998002       891.998002                                              
                                 21          1804.19580       802.097902       892.097902                                              
                                 22          1804.39560       802.197802       892.197802                                              
                                 23          1804.59540       802.297702       892.297702                                              
                                 24          1804.79520       802.397602       892.397602                                              
                                 25          1804.99500       802.497502       892.497502                                              
                                 26          1805.19481       802.597403       892.597403                                              
                                 27          1805.39461       802.697303       892.697303                                              
                                 28          1805.59441       802.797203       892.797203                                              
                                 29          1805.79421       802.897103       892.897103                                              
                                 30          1805.99401       802.997003       892.997003                                              
                                 31          1806.19381       803.096903       893.096903                                              
                                 32          1806.39361       803.196803       893.196803                                              
                                 33          1806.59341       803.296703       893.296703                                              
                                 34          1806.79321       803.396603       893.396603                                              
                                 35          1806.99301       803.496503       893.496503                                              
                                 36          1807.19281       803.596404       893.596404                                              
                                 37          1807.39261       803.696304       893.696304                                              
                                 38          1807.59241       803.796204       893.796204                                              
                                 39          1807.79221       803.896104       893.896104                                              
                                 40          1807.99201       803.996004       893.996004                                              
                                 41          1808.19181       804.095904       894.095904                                              
                                 42          1808.39161       804.195804       894.195804                                              
                                 43          1808.59141       804.295704       894.295704                                              
                                 44          1808.79121       804.395604       894.395604                                              
                                 45          1808.99101       804.495504       894.495504                                              
                                 46          1809.19081       804.595405       894.595405                                              
                                 47          1809.39061       804.695305       894.695305                                              
                                 48          1809.59041       804.795205       894.795205                                              
                                 49          1809.79021       804.895105       894.895105                                              
                                 50          1809.99001       804.995005       894.995005                                              
                                 51          1810.18981       805.094905       895.094905                                              
                                 52          1810.38961       805.194805       895.194805                                              
                                 53          1810.58941       805.294705       895.294705                                              
                                 54          1810.78921       805.394605       895.394605                                              
                                 55          1810.98901       805.494505       895.494505                                              
                                 56          1811.18881       805.594406       895.594406                                              
                                 57          1811.38861       805.694306       895.694306                                              
                                 58          1811.58841       805.794206       895.794206                                              
                                 59          1811.78821       805.894106       895.894106                                              
                                 60          1811.98801       805.994006       895.994006                                              
                                 61          1812.18781       806.093906       896.093906                                              
                                 62          1812.38761       806.193806       896.193806                                              
                                 63          1812.58741       806.293706       896.293706                                              
                                 64          1812.78721       806.393606       896.393606                                              
                                 65          1812.98701       806.493506       896.493506                                              
                                 66          1813.18681       806.593407       896.593407                                              
                                 67          1813.38661       806.693307       896.693307                                              
                                 68          1813.58641       806.793207       896.793207                                              
                                 69          1813.78621       806.893107       896.893107                                              
                                 70          1813.98601       806.993007       896.993007                                              
                                 71          1814.18581       807.092907       897.092907                                              
                                 72          1814.38561       807.192807       897.192807                                              
                                 73          1814.58541       807.292707       897.292707                                              
                                 74          1814.78521       807.392607       897.392607                                              
                                 75          1814.98501       807.492507       897.492507                                              
                                 76          1815.18482       807.592408       897.592408                                              
                                 77          1815.38462       807.692308       897.692308                                              
                                 78          1815.58442       807.792208       897.792208                                              
                                 79          1815.78422       807.892108       897.892108                                              
                                 80          1815.98402       807.992008       897.992008                                              
                                 81          1816.18382       808.091908       898.091908                                              
                                 82          1816.38362       808.191808       898.191808                                              
                                 83          1816.58342       808.291708       898.291708                                              
                                 84          1816.78322       808.391608       898.391608                                              
                                 85          1816.98302       808.491508       898.491508                                              
                                 86          1817.18282       808.591409       898.591409                                              
                                 87          1817.38262       808.691309       898.691309                                              
                                 88          1817.58242       808.791209       898.791209                                              
                                 89          1817.78222       808.891109       898.891109                                              
                                 90          1817.98202       808.991009       898.991009                                              
                                 91          1818.18182       809.090909       899.090909                                              
                                 92          1818.38162       809.190809       899.190809                                              
                                 93          1818.58142       809.290709       899.290709                                              
                                 94          1818.78122       809.390609       899.390609                                              
                                 95          1818.98102       809.490509       899.490509                                              
                                 96          1819.18082       809.590410       899.590410                                              
                                 97          1819.38062       809.690310       899.690310                                              
                                 98          1819.58042       809.790210       899.790210                                              
                                 99          1819.78022       809.890110       899.890110                                              
                                 100         1819.98002       809.990010       899.990010                                              
                                 101         1820.17982       810.089910       900.089910                                              
                                 102         1820.37962       810.189810       900.189810                                              
                                 103         1820.57942       810.289710       900.289710                                              
                                 104         1820.77922       810.389610       900.389610                                              
                                 105         1820.97902       810.489510       900.489510                                              
                                 106         1821.17882       810.589411       900.589411                                              
                                 107         1821.37862       810.689311       900.689311                                              
                                 108         1821.57842       810.789211       900.789211                                              
                                 109         1821.77822       810.889111       900.889111                                              
                                 110         1821.97802       810.989011       900.989011                                              
                                 111         1822.17782       811.088911       901.088911                                              
                                 112         1822.37762       811.188811       901.188811                                              
                                 113         1822.57742       811.288711       901.288711                                              
                                 114         1822.77722       811.388611       901.388611                                              
                                 115         1822.97702       811.488511       901.488511                                              
                                 116         1823.17682       811.588412       901.588412                                              
                                 117         1823.37662       811.688312       901.688312                                              
                                 118         1823.57642       811.788212       901.788212                                              
                                 119         1823.77622       811.888112       901.888112                                              
                                 120         1823.97602       811.988012       901.988012                                              
                                 121         1824.17582       812.087912       902.087912                                              
                                 122         1824.37562       812.187812       902.187812                                              
                                 123         1824.57542       812.287712       902.287712                                              
                                 124         1824.77522       812.387612       902.387612                                              
                                 125         1824.97502       812.487512       902.487512                                              
                                 126         1825.17483       812.587413       902.587413                                              
                                 127         1825.37463       812.687313       902.687313                                              
                                 128         1825.57443       812.787213       902.787213                                              
                                 129         1825.77423       812.887113       902.887113                                              
                                 130         1825.97403       812.987013       902.987013                                              
                                 131         1826.17383       813.086913       903.086913                                              
                                 132         1826.37363       813.186813       903.186813                                              
                                 133         1826.57343       813.286713       903.286713                                              
                                 134         1826.77323       813.386613       903.386613                                              
                                 135         1826.97303       813.486513       903.486513                                              
                                 136         1827.17283       813.586414       903.586414                                              
                                 137         1827.37263       813.686314       903.686314                                              
                                 138         1827.57243       813.786214       903.786214                                              
                                 139         1827.77223       813.886114       903.886114                                              
                                 140         1827.97203       813.986014       903.986014                                              
                                 141         1828.17183       814.085914       904.085914                                              
                                 142         1828.37163       814.185814       904.185814                                              
                                 143         1828.57143       814.285714       904.285714                                              
                                 144         1828.77123       814.385614       904.385614                                              
                                 145         1828.97103       814.485514       904.485514                                              
                                 146         1829.17083       814.585415       904.585415                                              
                                 147         1829.37063       814.685315       904.685315                                              
                                 148         1829.57043       814.785215       904.785215                                              
                                 149         1829.77023       814.885115       904.885115                                              
                                 150         1829.97003       814.985015       904.985015                                              
                                 151         1830.16983       815.084915       905.084915                                              
                                 152         1830.36963       815.184815       905.184815                                              
                                 153         1830.56943       815.284715       905.284715                                              
                                 154         1830.76923       815.384615       905.384615                                              
                                 155         1830.96903       815.484515       905.484515                                              
                                 156         1831.16883       815.584416       905.584416                                              
                                 157         1831.36863       815.684316       905.684316                                              
                                 158         1831.56843       815.784216       905.784216                                              
                                 159         1831.76823       815.884116       905.884116                                              
                                 160         1831.96803       815.984016       905.984016                                              
                                 161         1832.16783       816.083916       906.083916                                              
                                 162         1832.36763       816.183816       906.183816                                              
                                 163         1832.56743       816.283716       906.283716                                              
                                 164         1832.76723       816.383616       906.383616                                              
                                 165         1832.96703       816.483516       906.483516                                              
                                 166         1833.16683       816.583417       906.583417                                              
                                 167         1833.36663       816.683317       906.683317                                              
                                 168         1833.56643       816.783217       906.783217                                              
                                 169         1833.76623       816.883117       906.883117                                              
                                 170         1833.96603       816.983017       906.983017                                              
                                 171         1834.16583       817.082917       907.082917                                              
                                 172         1834.36563       817.182817       907.182817                                              
                                 173         1834.56543       817.282717       907.282717                                              
                                 174         1834.76523       817.382617       907.382617                                              
                                 175         1834.96503       817.482517       907.482517                                              
                                 176         1835.16484       817.582418       907.582418                                              
                                 177         1835.36464       817.682318       907.682318                                              
                                 178         1835.56444       817.782218       907.782218                                              
                                 179         1835.76424       817.882118       907.882118                                              
                                 180         1835.96404       817.982018       907.982018                                              
                                 181         1836.16384       818.081918       908.081918                                              
                                 182         1836.36364       818.181818       908.181818                                              
                                 183         1836.56344       818.281718       908.281718                                              
                                 184         1836.76324       818.381618       908.381618                                              
                                 185         1836.96304       818.481518       908.481518                                              
                                 186         1837.16284       818.581419       908.581419                                              
                                 187         1837.36264       818.681319       908.681319                                              
                                 188         1837.56244       818.781219       908.781219                                              
                                 189         1837.76224       818.881119       908.881119                                              
                                 190         1837.96204       818.981019       908.981019                                              
                                 191         1838.16184       819.080919       909.080919                                              
                                 192         1838.36164       819.180819       909.180819                                              
                                 193         1838.56144       819.280719       909.280719                                              
                                 194         1838.76124       819.380619       909.380619                                              
                                 195         1838.96104       819.480519       909.480519                                              
                                 196         1839.16084       819.580420       909.580420                                              
                                 197         1839.36064       819.680320       909.680320                                              
                                 198         1839.56044       819.780220       909.780220                                              
                                 199         1839.76024       819.880120       909.880120                                              
                                 200         1839.96004       819.980020       909.980020                                              
                                 201         1840.15984       820.079920       910.079920                                              
                                 202         1840.35964       820.179820       910.179820                                              
                                 203         1840.55944       820.279720       910.279720                                              
                                 204         1840.75924       820.379620       910.379620                                              
                                 205         1840.95904       820.479520       910.479520                                              
                                 206         1841.15884       820.579421       910.579421                                              
                                 207         1841.35864       820.679321       910.679321                                              
                                 208         1841.55844       820.779221       910.779221                                              
                                 209         1841.75824       820.879121       910.879121                                              
                                 210         1841.95804       820.979021       910.979021                                              
                                 211         1842.15784       821.078921       911.078921                                              
                                 212         1842.35764       821.178821       911.178821                                              
                                 213         1842.55744       821.278721       911.278721                                              
                                 214         1842.75724       821.378621       911.378621                                              
                                 215         1842.95704       821.478521       911.478521                                              
                                 216         1843.15684       821.578422       911.578422                                              
                                 217         1843.35664       821.678322       911.678322                                              
                                 218         1843.55644       821.778222       911.778222                                              
                                 219         1843.75624       821.878122       911.878122                                              
                                 220         1843.95604       821.978022       911.978022                                              
                                 221         1844.15584       822.077922       912.077922                                              
                                 222         1844.35564       822.177822       912.177822                                              
                                 223         1844.55544       822.277722       912.277722                                              
                                 224         1844.75524       822.377622       912.377622                                              
                                 225         1844.95504       822.477522       912.477522                                              
                                 226         1845.15485       822.577423       912.577423                                              
                                 227         1845.35465       822.677323       912.677323                                              
                                 228         1845.55445       822.777223       912.777223                                              
                                 229         1845.75425       822.877123       912.877123                                              
                                 230         1845.95405       822.977023       912.977023                                              
                                 231         1846.15385       823.076923       913.076923                                              
                                 232         1846.35365       823.176823       913.176823                                              
                                 233         1846.55345       823.276723       913.276723                                              
                                 234         1846.75325       823.376623       913.376623                                              
                                 235         1846.95305       823.476523       913.476523                                              
                                 236         1847.15285       823.576424       913.576424                                              
                                 237         1847.35265       823.676324       913.676324                                              
                                 238         1847.55245       823.776224       913.776224                                              
                                 239         1847.75225       823.876124       913.876124                                              
                                 240         1847.95205       823.976024       913.976024                                              
                                 241         1848.15185       824.075924       914.075924                                              
                                 242         1848.35165       824.175824       914.175824                                              
                                 243         1848.55145       824.275724       914.275724                                              
                                 244         1848.75125       824.375624       914.375624                                              
                                 245         1848.95105       824.475524       914.475524                                              
                                 246         1849.15085       824.575425       914.575425                                              
                                 247         1849.35065       824.675325       914.675325                                              
                                 248         1849.55045       824.775225       914.775225                                              
                                 249         1849.75025       824.875125       914.875125                                              
                                 250         1849.95005       824.975025       914.975025                                              
                                 251         1850.14985       825.074925       915.074925                                              
                                 252         1850.34965       825.174825       915.174825                                              
                                 253         1850.54945       825.274725       915.274725                                              
                                 254         1850.74925       825.374625       915.374625                                              
                                 255         1850.94905       825.474525       915.474525                                              
                                 256         1851.14885       825.574426       915.574426                                              
                                 257         1851.34865       825.674326       915.674326                                              
                                 258         1851.54845       825.774226       915.774226                                              
                                 259         1851.74825       825.874126       915.874126                                              
                                 260         1851.94805       825.974026       915.974026                                              
                                 261         1852.14785       826.073926       916.073926                                              
                                 262         1852.34765       826.173826       916.173826                                              
                                 263         1852.54745       826.273726       916.273726                                              
                                 264         1852.74725       826.373626       916.373626                                              
                                 265         1852.94705       826.473526       916.473526                                              
                                 266         1853.14685       826.573427       916.573427                                              
                                 267         1853.34665       826.673327       916.673327                                              
                                 268         1853.54645       826.773227       916.773227                                              
                                 269         1853.74625       826.873127       916.873127                                              
                                 270         1853.94605       826.973027       916.973027                                              
                                 271         1854.14585       827.072927       917.072927                                              
                                 272         1854.34565       827.172827       917.172827                                              
                                 273         1854.54545       827.272727       917.272727                                              
                                 274         1854.74525       827.372627       917.372627                                              
                                 275         1854.94505       827.472527       917.472527                                              
                                 276         1855.14486       827.572428       917.572428                                              
                                 277         1855.34466       827.672328       917.672328                                              
                                 278         1855.54446       827.772228       917.772228                                              
                                 279         1855.74426       827.872128       917.872128                                              
                                 280         1855.94406       827.972028       917.972028                                              
                                 281         1856.14386       828.071928       918.071928                                              
                                 282         1856.34366       828.171828       918.171828                                              
                                 283         1856.54346       828.271728       918.271728                                              
                                 284         1856.74326       828.371628       918.371628                                              
                                 285         1856.94306       828.471528       918.471528                                              
                                 286         1857.14286       828.571429       918.571429                                              
                                 287         1857.34266       828.671329       918.671329                                              
                                 288         1857.54246       828.771229       918.771229                                              
                                 289         1857.74226       828.871129       918.871129                                              
                                 290         1857.94206       828.971029       918.971029                                              
                                 291         1858.14186       829.070929       919.070929                                              
                                 292         1858.34166       829.170829       919.170829                                              
                                 293         1858.54146       829.270729       919.270729                                              
                                 294         1858.74126       829.370629       919.370629                                              
                                 295         1858.94106       829.470529       919.470529                                              
                                 296         1859.14086       829.570430       919.570430                                              
                                 297         1859.34066       829.670330       919.670330                                              
                                 298         1859.54046       829.770230       919.770230                                              
                                 299         1859.74026       829.870130       919.870130                                              
                                 300         1859.94006       829.970030       919.970030                                              
                                 301         1860.13986       830.069930       920.069930                                              
                                 302         1860.33966       830.169830       920.169830                                              
                                 303         1860.53946       830.269730       920.269730                                              
                                 304         1860.73926       830.369630       920.369630                                              
                                 305         1860.93906       830.469530       920.469530                                              
                                 306         1861.13886       830.569431       920.569431                                              
                                 307         1861.33866       830.669331       920.669331                                              
                                 308         1861.53846       830.769231       920.769231                                              
                                 309         1861.73826       830.869131       920.869131                                              
                                 310         1861.93806       830.969031       920.969031                                              
                                 311         1862.13786       831.068931       921.068931                                              
                                 312         1862.33766       831.168831       921.168831                                              
                                 313         1862.53746       831.268731       921.268731                                              
                                 314         1862.73726       831.368631       921.368631                                              
                                 315         1862.93706       831.468531       921.468531                                              
                                 316         1863.13686       831.568432       921.568432                                              
                                 317         1863.33666       831.668332       921.668332                                              
                                 318         1863.53646       831.768232       921.768232                                              
                                 319         1863.73626       831.868132       921.868132                                              
                                 320         1863.93606       831.968032       921.968032                                              
                                 321         1864.13586       832.067932       922.067932                                              
                                 322         1864.33566       832.167832       922.167832                                              
                                 323         1864.53546       832.267732       922.267732                                              
                                 324         1864.73526       832.367632       922.367632                                              
                                 325         1864.93506       832.467532       922.467532                                              
                                 326         1865.13487       832.567433       922.567433                                              
                                 327         1865.33467       832.667333       922.667333                                              
                                 328         1865.53447       832.767233       922.767233                                              
                                 329         1865.73427       832.867133       922.867133                                              
                                 330         1865.93407       832.967033       922.967033                                              
                                 331         1866.13387       833.066933       923.066933                                              
                                 332         1866.33367       833.166833       923.166833                                              
                                 333         1866.53347       833.266733       923.266733                                              
                                 334         1866.73327       833.366633       923.366633                                              
                                 335         1866.93307       833.466533       923.466533                                              
                                 336         1867.13287       833.566434       923.566434                                              
                                 337         1867.33267       833.666334       923.666334                                              
                                 338         1867.53247       833.766234       923.766234                                              
                                 339         1867.73227       833.866134       923.866134                                              
                                 340         1867.93207       833.966034       923.966034                                              
                                 341         1868.13187       834.065934       924.065934                                              
                                 342         1868.33167       834.165834       924.165834                                              
                                 343         1868.53147       834.265734       924.265734                                              
                                 344         1868.73127       834.365634       924.365634                                              
                                 345         1868.93107       834.465534       924.465534                                              
                                 346         1869.13087       834.565435       924.565435                                              
                                 347         1869.33067       834.665335       924.665335                                              
                                 348         1869.53047       834.765235       924.765235                                              
                                 349         1869.73027       834.865135       924.865135                                              
                                 350         1869.93007       834.965035       924.965035                                              
                                 351         1870.12987       835.064935       925.064935                                              
                                 352         1870.32967       835.164835       925.164835                                              
                                 353         1870.52947       835.264735       925.264735                                              
                                 354         1870.72927       835.364635       925.364635                                              
                                 355         1870.92907       835.464535       925.464535                                              
                                 356         1871.12887       835.564436       925.564436                                              
                                 357         1871.32867       835.664336       925.664336                                              
                                 358         1871.52847       835.764236       925.764236                                              
                                 359         1871.72827       835.864136       925.864136                                              
                                 360         1871.92807       835.964036       925.964036                                              
                                 361         1872.12787       836.063936       926.063936                                              
                                 362         1872.32767       836.163836       926.163836                                              
                                 363         1872.52747       836.263736       926.263736                                              
                                 364         1872.72727       836.363636       926.363636                                              
                                 365         1872.92707       836.463536       926.463536                                              
                                 366         1873.12687       836.563437       926.563437                                              
                                 367         1873.32667       836.663337       926.663337                                              
                                 368         1873.52647       836.763237       926.763237                                              
                                 369         1873.72627       836.863137       926.863137                                              
                                 370         1873.92607       836.963037       926.963037                                              
                                 371         1874.12587       837.062937       927.062937                                              
                                 372         1874.32567       837.162837       927.162837                                              
                                 373         1874.52547       837.262737       927.262737                                              
                                 374         1874.72527       837.362637       927.362637                                              
                                 375         1874.92507       837.462537       927.462537                                              
                                 376         1875.12488       837.562438       927.562438                                              
                                 377         1875.32468       837.662338       927.662338                                              
                                 378         1875.52448       837.762238       927.762238                                              
                                 379         1875.72428       837.862138       927.862138                                              
                                 380         1875.92408       837.962038       927.962038                                              
                                 381         1876.12388       838.061938       928.061938                                              
                                 382         1876.32368       838.161838       928.161838                                              
                                 383         1876.52348       838.261738       928.261738                                              
                                 384         1876.72328       838.361638       928.361638                                              
                                 385         1876.92308       838.461538       928.461538                                              
                                 386         1877.12288       838.561439       928.561439                                              
                                 387         1877.32268       838.661339       928.661339                                              
                                 388         1877.52248       838.761239       928.761239                                              
                                 389         1877.72228       838.861139       928.861139                                              
                                 390         1877.92208       838.961039       928.961039                                              
                                 391         1878.12188       839.060939       929.060939                                              
                                 392         1878.32168       839.160839       929.160839                                              
                                 393         1878.52148       839.260739       929.260739                                              
                                 394         1878.72128       839.360639       929.360639                                              
                                 395         1878.92108       839.460539       929.460539                                              
                                 396         1879.12088       839.560440       929.560440                                              
                                 397         1879.32068       839.660340       929.660340                                              
                                 398         1879.52048       839.760240       929.760240                                              
                                 399         1879.72028       839.860140       929.860140                                              
                                 400         1879.92008       839.960040       929.960040                                              
                                 401         1880.11988       840.059940       930.059940                                              
                                 402         1880.31968       840.159840       930.159840                                              
                                 403         1880.51948       840.259740       930.259740                                              
                                 404         1880.71928       840.359640       930.359640                                              
                                 405         1880.91908       840.459540       930.459540                                              
                                 406         1881.11888       840.559441       930.559441                                              
                                 407         1881.31868       840.659341       930.659341                                              
                                 408         1881.51848       840.759241       930.759241                                              
                                 409         1881.71828       840.859141       930.859141                                              
                                 410         1881.91808       840.959041       930.959041                                              
                                 411         1882.11788       841.058941       931.058941                                              
                                 412         1882.31768       841.158841       931.158841                                              
                                 413         1882.51748       841.258741       931.258741                                              
                                 414         1882.71728       841.358641       931.358641                                              
                                 415         1882.91708       841.458541       931.458541                                              
                                 416         1883.11688       841.558442       931.558442                                              
                                 417         1883.31668       841.658342       931.658342                                              
                                 418         1883.51648       841.758242       931.758242                                              
                                 419         1883.71628       841.858142       931.858142                                              
                                 420         1883.91608       841.958042       931.958042                                              
                                 421         1884.11588       842.057942       932.057942                                              
                                 422         1884.31568       842.157842       932.157842                                              
                                 423         1884.51548       842.257742       932.257742                                              
                                 424         1884.71528       842.357642       932.357642                                              
                                 425         1884.91508       842.457542       932.457542                                              
                                 426         1885.11489       842.557443       932.557443                                              
                                 427         1885.31469       842.657343       932.657343                                              
                                 428         1885.51449       842.757243       932.757243                                              
                                 429         1885.71429       842.857143       932.857143                                              
                                 430         1885.91409       842.957043       932.957043                                              
                                 431         1886.11389       843.056943       933.056943                                              
                                 432         1886.31369       843.156843       933.156843                                              
                                 433         1886.51349       843.256743       933.256743                                              
                                 434         1886.71329       843.356643       933.356643                                              
                                 435         1886.91309       843.456543       933.456543                                              
                                 436         1887.11289       843.556444       933.556444                                              
                                 437         1887.31269       843.656344       933.656344                                              
                                 438         1887.51249       843.756244       933.756244                                              
                                 439         1887.71229       843.856144       933.856144                                              
                                 440         1887.91209       843.956044       933.956044                                              
                                 441         1888.11189       844.055944       934.055944                                              
                                 442         1888.31169       844.155844       934.155844                                              
                                 443         1888.51149       844.255744       934.255744                                              
                                 444         1888.71129       844.355644       934.355644                                              
                                 445         1888.91109       844.455544       934.455544                                              
                                 446         1889.11089       844.555445       934.555445                                              
                                 447         1889.31069       844.655345       934.655345                                              
                                 448         1889.51049       844.755245       934.755245                                              
                                 449         1889.71029       844.855145       934.855145                                              
                                 450         1889.91009       844.955045       934.955045                                              
                                 451         1890.10989       845.054945       935.054945                                              
                                 452         1890.30969       845.154845       935.154845                                              
                                 453         1890.50949       845.254745       935.254745                                              
                                 454         1890.70929       845.354645       935.354645                                              
                                 455         1890.90909       845.454545       935.454545                                              
                                 456         1891.10889       845.554446       935.554446                                              
                                 457         1891.30869       845.654346       935.654346                                              
                                 458         1891.50849       845.754246       935.754246                                              
                                 459         1891.70829       845.854146       935.854146                                              
                                 460         1891.90809       845.954046       935.954046                                              
                                 461         1892.10789       846.053946       936.053946                                              
                                 462         1892.30769       846.153846       936.153846                                              
                                 463         1892.50749       846.253746       936.253746                                              
                                 464         1892.70729       846.353646       936.353646                                              
                                 465         1892.90709       846.453546       936.453546                                              
                                 466         1893.10689       846.553447       936.553447                                              
                                 467         1893.30669       846.653347       936.653347                                              
                                 468         1893.50649       846.753247       936.753247                                              
                                 469         1893.70629       846.853147       936.853147                                              
                                 470         1893.90609       846.953047       936.953047                                              
                                 471         1894.10589       847.052947       937.052947                                              
                                 472         1894.30569       847.152847       937.152847                                              
                                 473         1894.50549       847.252747       937.252747                                              
                                 474         1894.70529       847.352647       937.352647                                              
                                 475         1894.90509       847.452547       937.452547                                              
                                 476         1895.10490       847.552448       937.552448                                              
                                 477         1895.30470       847.652348       937.652348                                              
                                 478         1895.50450       847.752248       937.752248                                              
                                 479         1895.70430       847.852148       937.852148                                              
                                 480         1895.90410       847.952048       937.952048                                              
                                 481         1896.10390       848.051948       938.051948                                              
                                 482         1896.30370       848.151848       938.151848                                              
                                 483         1896.50350       848.251748       938.251748                                              
                                 484         1896.70330       848.351648       938.351648                                              
                                 485         1896.90310       848.451548       938.451548                                              
                                 486         1897.10290       848.551449       938.551449                                              
                                 487         1897.30270       848.651349       938.651349                                              
                                 488         1897.50250       848.751249       938.751249                                              
                                 489         1897.70230       848.851149       938.851149                                              
                                 490         1897.90210       848.951049       938.951049                                              
                                 491         1898.10190       849.050949       939.050949                                              
                                 492         1898.30170       849.150849       939.150849                                              
                                 493         1898.50150       849.250749       939.250749                                              
                                 494         1898.70130       849.350649       939.350649                                              
                                 495         1898.90110       849.450549       939.450549                                              
                                 496         1899.10090       849.550450       939.550450                                              
                                 497         1899.30070       849.650350       939.650350                                              
                                 498         1899.50050       849.750250       939.750250                                              
                                 499         1899.70030       849.850150       939.850150                                              
                                 500         1899.90010       849.950050       939.950050                                              
                                 501         1900.09990       850.049950       940.049950                                              
                                 502         1900.29970       850.149850       940.149850                                              
                                 503         1900.49950       850.249750       940.249750                                              
                                 504         1900.69930       850.349650       940.349650                                              
                                 505         1900.89910       850.449550       940.449550                                              
                                 506         1901.09890       850.549451       940.549451                                              
                                 507         1901.29870       850.649351       940.649351                                              
                                 508         1901.49850       850.749251       940.749251                                              
                                 509         1901.69830       850.849151       940.849151                                              
                                 510         1901.89810       850.949051       940.949051                                              
                                 511         1902.09790       851.048951       941.048951                                              
                                 512         1902.29770       851.148851       941.148851                                              
                                 513         1902.49750       851.248751       941.248751                                              
                                 514         1902.69730       851.348651       941.348651                                              
                                 515         1902.89710       851.448551       941.448551                                              
                                 516         1903.09690       851.548452       941.548452                                              
                                 517         1903.29670       851.648352       941.648352                                              
                                 518         1903.49650       851.748252       941.748252                                              
                                 519         1903.69630       851.848152       941.848152                                              
                                 520         1903.89610       851.948052       941.948052                                              
                                 521         1904.09590       852.047952       942.047952                                              
                                 522         1904.29570       852.147852       942.147852                                              
                                 523         1904.49550       852.247752       942.247752                                              
                                 524         1904.69530       852.347652       942.347652                                              
                                 525         1904.89510       852.447552       942.447552                                              
                                 526         1905.09491       852.547453       942.547453                                              
                                 527         1905.29471       852.647353       942.647353                                              
                                 528         1905.49451       852.747253       942.747253                                              
                                 529         1905.69431       852.847153       942.847153                                              
                                 530         1905.89411       852.947053       942.947053                                              
                                 531         1906.09391       853.046953       943.046953                                              
                                 532         1906.29371       853.146853       943.146853                                              
                                 533         1906.49351       853.246753       943.246753                                              
                                 534         1906.69331       853.346653       943.346653                                              
                                 535         1906.89311       853.446553       943.446553                                              
                                 536         1907.09291       853.546454       943.546454                                              
                                 537         1907.29271       853.646354       943.646354                                              
                                 538         1907.49251       853.746254       943.746254                                              
                                 539         1907.69231       853.846154       943.846154                                              
                                 540         1907.89211       853.946054       943.946054                                              
                                 541         1908.09191       854.045954       944.045954                                              
                                 542         1908.29171       854.145854       944.145854                                              
                                 543         1908.49151       854.245754       944.245754                                              
                                 544         1908.69131       854.345654       944.345654                                              
                                 545         1908.89111       854.445554       944.445554                                              
                                 546         1909.09091       854.545455       944.545455                                              
                                 547         1909.29071       854.645355       944.645355                                              
                                 548         1909.49051       854.745255       944.745255                                              
                                 549         1909.69031       854.845155       944.845155                                              
                                 550         1909.89011       854.945055       944.945055                                              
                                 551         1910.08991       855.044955       945.044955                                              
                                 552         1910.28971       855.144855       945.144855                                              
                                 553         1910.48951       855.244755       945.244755                                              
                                 554         1910.68931       855.344655       945.344655                                              
                                 555         1910.88911       855.444555       945.444555                                              
                                 556         1911.08891       855.544456       945.544456                                              
                                 557         1911.28871       855.644356       945.644356                                              
                                 558         1911.48851       855.744256       945.744256                                              
                                 559         1911.68831       855.844156       945.844156                                              
                                 560         1911.88811       855.944056       945.944056                                              
                                 561         1912.08791       856.043956       946.043956                                              
                                 562         1912.28771       856.143856       946.143856                                              
                                 563         1912.48751       856.243756       946.243756                                              
                                 564         1912.68731       856.343656       946.343656                                              
                                 565         1912.88711       856.443556       946.443556                                              
                                 566         1913.08691       856.543457       946.543457                                              
                                 567         1913.28671       856.643357       946.643357                                              
                                 568         1913.48651       856.743257       946.743257                                              
                                 569         1913.68631       856.843157       946.843157                                              
                                 570         1913.88611       856.943057       946.943057                                              
                                 571         1914.08591       857.042957       947.042957                                              
                                 572         1914.28571       857.142857       947.142857                                              
                                 573         1914.48551       857.242757       947.242757                                              
                                 574         1914.68531       857.342657       947.342657                                              
                                 575         1914.88511       857.442557       947.442557                                              
                                 576         1915.08492       857.542458       947.542458                                              
                                 577         1915.28472       857.642358       947.642358                                              
                                 578         1915.48452       857.742258       947.742258                                              
                                 579         1915.68432       857.842158       947.842158                                              
                                 580         1915.88412       857.942058       947.942058                                              
                                 581         1916.08392       858.041958       948.041958                                              
                                 582         1916.28372       858.141858       948.141858                                              
                                 583         1916.48352       858.241758       948.241758                                              
                                 584         1916.68332       858.341658       948.341658                                              
                                 585         1916.88312       858.441558       948.441558                                              
                                 586         1917.08292       858.541459       948.541459                                              
                                 587         1917.28272       858.641359       948.641359                                              
                                 588         1917.48252       858.741259       948.741259                                              
                                 589         1917.68232       858.841159       948.841159                                              
                                 590         1917.88212       858.941059       948.941059                                              
                                 591         1918.08192       859.040959       949.040959                                              
                                 592         1918.28172       859.140859       949.140859                                              
                                 593         1918.48152       859.240759       949.240759                                              
                                 594         1918.68132       859.340659       949.340659                                              
                                 595         1918.88112       859.440559       949.440559                                              
                                 596         1919.08092       859.540460       949.540460                                              
                                 597         1919.28072       859.640360       949.640360                                              
                                 598         1919.48052       859.740260       949.740260                                              
                                 599         1919.68032       859.840160       949.840160                                              
                                 600         1919.88012       859.940060       949.940060                                              
                                 601         1920.07992       860.039960       950.039960                                              
                                 602         1920.27972       860.139860       950.139860                                              
                                 603         1920.47952       860.239760       950.239760                                              
                                 604         1920.67932       860.339660       950.339660                                              
                                 605         1920.87912       860.439560       950.439560                                              
                                 606         1921.07892       860.539461       950.539461                                              
                                 607         1921.27872       860.639361       950.639361                                              
                                 608         1921.47852       860.739261       950.739261                                              
                                 609         1921.67832       860.839161       950.839161                                              
                                 610         1921.87812       860.939061       950.939061                                              
                                 611         1922.07792       861.038961       951.038961                                              
                                 612         1922.27772       861.138861       951.138861                                              
                                 613         1922.47752       861.238761       951.238761                                              
                                 614         1922.67732       861.338661       951.338661                                              
                                 615         1922.87712       861.438561       951.438561                                              
                                 616         1923.07692       861.538462       951.538462                                              
                                 617         1923.27672       861.638362       951.638362                                              
                                 618         1923.47652       861.738262       951.738262                                              
                                 619         1923.67632       861.838162       951.838162                                              
                                 620         1923.87612       861.938062       951.938062                                              
                                 621         1924.07592       862.037962       952.037962                                              
                                 622         1924.27572       862.137862       952.137862                                              
                                 623         1924.47552       862.237762       952.237762                                              
                                 624         1924.67532       862.337662       952.337662                                              
                                 625         1924.87512       862.437562       952.437562                                              
                                 626         1925.07493       862.537463       952.537463                                              
                                 627         1925.27473       862.637363       952.637363                                              
                                 628         1925.47453       862.737263       952.737263                                              
                                 629         1925.67433       862.837163       952.837163                                              
                                 630         1925.87413       862.937063       952.937063                                              
                                 631         1926.07393       863.036963       953.036963                                              
                                 632         1926.27373       863.136863       953.136863                                              
                                 633         1926.47353       863.236763       953.236763                                              
                                 634         1926.67333       863.336663       953.336663                                              
                                 635         1926.87313       863.436563       953.436563                                              
                                 636         1927.07293       863.536464       953.536464                                              
                                 637         1927.27273       863.636364       953.636364                                              
                                 638         1927.47253       863.736264       953.736264                                              
                                 639         1927.67233       863.836164       953.836164                                              
                                 640         1927.87213       863.936064       953.936064                                              
                                 641         1928.07193       864.035964       954.035964                                              
                                 642         1928.27173       864.135864       954.135864                                              
                                 643         1928.47153       864.235764       954.235764                                              
                                 644         1928.67133       864.335664       954.335664                                              
                                 645         1928.87113       864.435564       954.435564                                              
                                 646         1929.07093       864.535465       954.535465                                              
                                 647         1929.27073       864.635365       954.635365                                              
                                 648         1929.47053       864.735265       954.735265                                              
                                 649         1929.67033       864.835165       954.835165                                              
                                 650         1929.87013       864.935065       954.935065                                              
                                 651         1930.06993       865.034965       955.034965                                              
                                 652         1930.26973       865.134865       955.134865                                              
                                 653         1930.46953       865.234765       955.234765                                              
                                 654         1930.66933       865.334665       955.334665                                              
                                 655         1930.86913       865.434565       955.434565                                              
                                 656         1931.06893       865.534466       955.534466                                              
                                 657         1931.26873       865.634366       955.634366                                              
                                 658         1931.46853       865.734266       955.734266                                              
                                 659         1931.66833       865.834166       955.834166                                              
                                 660         1931.86813       865.934066       955.934066                                              
                                 661         1932.06793       866.033966       956.033966                                              
                                 662         1932.26773       866.133866       956.133866                                              
                                 663         1932.46753       866.233766       956.233766                                              
                                 664         1932.66733       866.333666       956.333666                                              
                                 665         1932.86713       866.433566       956.433566                                              
                                 666         1933.06693       866.533467       956.533467                                              
                                 667         1933.26673       866.633367       956.633367                                              
                                 668         1933.46653       866.733267       956.733267                                              
                                 669         1933.66633       866.833167       956.833167                                              
                                 670         1933.86613       866.933067       956.933067                                              
                                 671         1934.06593       867.032967       957.032967                                              
                                 672         1934.26573       867.132867       957.132867                                              
                                 673         1934.46553       867.232767       957.232767                                              
                                 674         1934.66533       867.332667       957.332667                                              
                                 675         1934.86513       867.432567       957.432567                                              
                                 676         1935.06494       867.532468       957.532468                                              
                                 677         1935.26474       867.632368       957.632368                                              
                                 678         1935.46454       867.732268       957.732268                                              
                                 679         1935.66434       867.832168       957.832168                                              
                                 680         1935.86414       867.932068       957.932068                                              
                                 681         1936.06394       868.031968       958.031968                                              
                                 682         1936.26374       868.131868       958.131868                                              
                                 683         1936.46354       868.231768       958.231768                                              
                                 684         1936.66334       868.331668       958.331668                                              
                                 685         1936.86314       868.431568       958.431568                                              
                                 686         1937.06294       868.531469       958.531469                                              
                                 687         1937.26274       868.631369       958.631369                                              
                                 688         1937.46254       868.731269       958.731269                                              
                                 689         1937.66234       868.831169       958.831169                                              
                                 690         1937.86214       868.931069       958.931069                                              
                                 691         1938.06194       869.030969       959.030969                                              
                                 692         1938.26174       869.130869       959.130869                                              
                                 693         1938.46154       869.230769       959.230769                                              
                                 694         1938.66134       869.330669       959.330669                                              
                                 695         1938.86114       869.430569       959.430569                                              
                                 696         1939.06094       869.530470       959.530470                                              
                                 697         1939.26074       869.630370       959.630370                                              
                                 698         1939.46054       869.730270       959.730270                                              
                                 699         1939.66034       869.830170       959.830170                                              
                                 700         1939.86014       869.930070       959.930070                                              
                                 701         1940.05994       870.029970       960.029970                                              
                                 702         1940.25974       870.129870       960.129870                                              
                                 703         1940.45954       870.229770       960.229770                                              
                                 704         1940.65934       870.329670       960.329670                                              
                                 705         1940.85914       870.429570       960.429570                                              
                                 706         1941.05894       870.529471       960.529471                                              
                                 707         1941.25874       870.629371       960.629371                                              
                                 708         1941.45854       870.729271       960.729271                                              
                                 709         1941.65834       870.829171       960.829171                                              
                                 710         1941.85814       870.929071       960.929071                                              
                                 711         1942.05794       871.028971       961.028971                                              
                                 712         1942.25774       871.128871       961.128871                                              
                                 713         1942.45754       871.228771       961.228771                                              
                                 714         1942.65734       871.328671       961.328671                                              
                                 715         1942.85714       871.428571       961.428571                                              
                                 716         1943.05694       871.528472       961.528472                                              
                                 717         1943.25674       871.628372       961.628372                                              
                                 718         1943.45654       871.728272       961.728272                                              
                                 719         1943.65634       871.828172       961.828172                                              
                                 720         1943.85614       871.928072       961.928072                                              
                                 721         1944.05594       872.027972       962.027972                                              
                                 722         1944.25574       872.127872       962.127872                                              
                                 723         1944.45554       872.227772       962.227772                                              
                                 724         1944.65534       872.327672       962.327672                                              
                                 725         1944.85514       872.427572       962.427572                                              
                                 726         1945.05495       872.527473       962.527473                                              
                                 727         1945.25475       872.627373       962.627373                                              
                                 728         1945.45455       872.727273       962.727273                                              
                                 729         1945.65435       872.827173       962.827173                                              
                                 730         1945.85415       872.927073       962.927073                                              
                                 731         1946.05395       873.026973       963.026973                                              
                                 732         1946.25375       873.126873       963.126873                                              
                                 733         1946.45355       873.226773       963.226773                                              
                                 734         1946.65335       873.326673       963.326673                                              
                                 735         1946.85315       873.426573       963.426573                                              
                                 736         1947.05295       873.526474       963.526474                                              
                                 737         1947.25275       873.626374       963.626374                                              
                                 738         1947.45255       873.726274       963.726274                                              
                                 739         1947.65235       873.826174       963.826174                                              
                                 740         1947.85215       873.926074       963.926074                                              
                                 741         1948.05195       874.025974       964.025974                                              
                                 742         1948.25175       874.125874       964.125874                                              
                                 743         1948.45155       874.225774       964.225774                                              
                                 744         1948.65135       874.325674       964.325674                                              
                                 745         1948.85115       874.425574       964.425574                                              
                                 746         1949.05095       874.525475       964.525475                                              
                                 747         1949.25075       874.625375       964.625375                                              
                                 748         1949.45055       874.725275       964.725275                                              
                                 749         1949.65035       874.825175       964.825175                                              
                                 750         1949.85015       874.925075       964.925075                                              
                                 751         1950.04995       875.024975       965.024975                                              
                                 752         1950.24975       875.124875       965.124875                                              
                                 753         1950.44955       875.224775       965.224775                                              
                                 754         1950.64935       875.324675       965.324675                                              
                                 755         1950.84915       875.424575       965.424575                                              
                                 756         1951.04895       875.524476       965.524476                                              
                                 757         1951.24875       875.624376       965.624376                                              
                                 758         1951.44855       875.724276       965.724276                                              
                                 759         1951.64835       875.824176       965.824176                                              
                                 760         1951.84815       875.924076       965.924076                                              
                                 761         1952.04795       876.023976       966.023976                                              
                                 762         1952.24775       876.123876       966.123876                                              
                                 763         1952.44755       876.223776       966.223776                                              
                                 764         1952.64735       876.323676       966.323676                                              
                                 765         1952.84715       876.423576       966.423576                                              
                                 766         1953.04695       876.523477       966.523477                                              
                                 767         1953.24675       876.623377       966.623377                                              
                                 768         1953.44655       876.723277       966.723277                                              
                                 769         1953.64635       876.823177       966.823177                                              
                                 770         1953.84615       876.923077       966.923077                                              
                                 771         1954.04595       877.022977       967.022977                                              
                                 772         1954.24575       877.122877       967.122877                                              
                                 773         1954.44555       877.222777       967.222777                                              
                                 774         1954.64535       877.322677       967.322677                                              
                                 775         1954.84515       877.422577       967.422577                                              
                                 776         1955.04496       877.522478       967.522478                                              
                                 777         1955.24476       877.622378       967.622378                                              
                                 778         1955.44456       877.722278       967.722278                                              
                                 779         1955.64436       877.822178       967.822178                                              
                                 780         1955.84416       877.922078       967.922078                                              
                                 781         1956.04396       878.021978       968.021978                                              
                                 782         1956.24376       878.121878       968.121878                                              
                                 783         1956.44356       878.221778       968.221778                                              
                                 784         1956.64336       878.321678       968.321678                                              
                                 785         1956.84316       878.421578       968.421578                                              
                                 786         1957.04296       878.521479       968.521479                                              
                                 787         1957.24276       878.621379       968.621379                                              
                                 788         1957.44256       878.721279       968.721279                                              
                                 789         1957.64236       878.821179       968.821179                                              
                                 790         1957.84216       878.921079       968.921079                                              
                                 791         1958.04196       879.020979       969.020979                                              
                                 792         1958.24176       879.120879       969.120879                                              
                                 793         1958.44156       879.220779       969.220779                                              
                                 794         1958.64136       879.320679       969.320679                                              
                                 795         1958.84116       879.420579       969.420579                                              
                                 796         1959.04096       879.520480       969.520480                                              
                                 797         1959.24076       879.620380       969.620380                                              
                                 798         1959.44056       879.720280       969.720280                                              
                                 799         1959.64036       879.820180       969.820180                                              
                                 800         1959.84016       879.920080       969.920080                                              
                                 801         1960.03996       880.019980       970.019980                                              
                                 802         1960.23976       880.119880       970.119880                                              
                                 803         1960.43956       880.219780       970.219780                                              
                                 804         1960.63936       880.319680       970.319680                                              
                                 805         1960.83916       880.419580       970.419580                                              
                                 806         1961.03896       880.519481       970.519481                                              
                                 807         1961.23876       880.619381       970.619381                                              
                                 808         1961.43856       880.719281       970.719281                                              
                                 809         1961.63836       880.819181       970.819181                                              
                                 810         1961.83816       880.919081       970.919081                                              
                                 811         1962.03796       881.018981       971.018981                                              
                                 812         1962.23776       881.118881       971.118881                                              
                                 813         1962.43756       881.218781       971.218781                                              
                                 814         1962.63736       881.318681       971.318681                                              
                                 815         1962.83716       881.418581       971.418581                                              
                                 816         1963.03696       881.518482       971.518482                                              
                                 817         1963.23676       881.618382       971.618382                                              
                                 818         1963.43656       881.718282       971.718282                                              
                                 819         1963.63636       881.818182       971.818182                                              
                                 820         1963.83616       881.918082       971.918082                                              
                                 821         1964.03596       882.017982       972.017982                                              
                                 822         1964.23576       882.117882       972.117882                                              
                                 823         1964.43556       882.217782       972.217782                                              
                                 824         1964.63536       882.317682       972.317682                                              
                                 825         1964.83516       882.417582       972.417582                                              
                                 826         1965.03497       882.517483       972.517483                                              
                                 827         1965.23477       882.617383       972.617383                                              
                                 828         1965.43457       882.717283       972.717283                                              
                                 829         1965.63437       882.817183       972.817183                                              
                                 830         1965.83417       882.917083       972.917083                                              
                                 831         1966.03397       883.016983       973.016983                                              
                                 832         1966.23377       883.116883       973.116883                                              
                                 833         1966.43357       883.216783       973.216783                                              
                                 834         1966.63337       883.316683       973.316683                                              
                                 835         1966.83317       883.416583       973.416583                                              
                                 836         1967.03297       883.516484       973.516484                                              
                                 837         1967.23277       883.616384       973.616384                                              
                                 838         1967.43257       883.716284       973.716284                                              
                                 839         1967.63237       883.816184       973.816184                                              
                                 840         1967.83217       883.916084       973.916084                                              
                                 841         1968.03197       884.015984       974.015984                                              
                                 842         1968.23177       884.115884       974.115884                                              
                                 843         1968.43157       884.215784       974.215784                                              
                                 844         1968.63137       884.315684       974.315684                                              
                                 845         1968.83117       884.415584       974.415584                                              
                                 846         1969.03097       884.515485       974.515485                                              
                                 847         1969.23077       884.615385       974.615385                                              
                                 848         1969.43057       884.715285       974.715285                                              
                                 849         1969.63037       884.815185       974.815185                                              
                                 850         1969.83017       884.915085       974.915085                                              
                                 851         1970.02997       885.014985       975.014985                                              
                                 852         1970.22977       885.114885       975.114885                                              
                                 853         1970.42957       885.214785       975.214785                                              
                                 854         1970.62937       885.314685       975.314685                                              
                                 855         1970.82917       885.414585       975.414585                                              
                                 856         1971.02897       885.514486       975.514486                                              
                                 857         1971.22877       885.614386       975.614386                                              
                                 858         1971.42857       885.714286       975.714286                                              
                                 859         1971.62837       885.814186       975.814186                                              
                                 860         1971.82817       885.914086       975.914086                                              
                                 861         1972.02797       886.013986       976.013986                                              
                                 862         1972.22777       886.113886       976.113886                                              
                                 863         1972.42757       886.213786       976.213786                                              
                                 864         1972.62737       886.313686       976.313686                                              
                                 865         1972.82717       886.413586       976.413586                                              
                                 866         1973.02697       886.513487       976.513487                                              
                                 867         1973.22677       886.613387       976.613387                                              
                                 868         1973.42657       886.713287       976.713287                                              
                                 869         1973.62637       886.813187       976.813187                                              
                                 870         1973.82617       886.913087       976.913087                                              
                                 871         1974.02597       887.012987       977.012987                                              
                                 872         1974.22577       887.112887       977.112887                                              
                                 873         1974.42557       887.212787       977.212787                                              
                                 874         1974.62537       887.312687       977.312687                                              
                                 875         1974.82517       887.412587       977.412587                                              
                                 876         1975.02498       887.512488       977.512488                                              
                                 877         1975.22478       887.612388       977.612388                                              
                                 878         1975.42458       887.712288       977.712288                                              
                                 879         1975.62438       887.812188       977.812188                                              
                                 880         1975.82418       887.912088       977.912088                                              
                                 881         1976.02398       888.011988       978.011988                                              
                                 882         1976.22378       888.111888       978.111888                                              
                                 883         1976.42358       888.211788       978.211788                                              
                                 884         1976.62338       888.311688       978.311688                                              
                                 885         1976.82318       888.411588       978.411588                                              
                                 886         1977.02298       888.511489       978.511489                                              
                                 887         1977.22278       888.611389       978.611389                                              
                                 888         1977.42258       888.711289       978.711289                                              
                                 889         1977.62238       888.811189       978.811189                                              
                                 890         1977.82218       888.911089       978.911089                                              
                                 891         1978.02198       889.010989       979.010989                                              
                                 892         1978.22178       889.110889       979.110889                                              
                                 893         1978.42158       889.210789       979.210789                                              
                                 894         1978.62138       889.310689       979.310689                                              
                                 895         1978.82118       889.410589       979.410589                                              
                                 896         1979.02098       889.510490       979.510490                                              
                                 897         1979.22078       889.610390       979.610390                                              
                                 898         1979.42058       889.710290       979.710290                                              
                                 899         1979.62038       889.810190       979.810190                                              
                                 900         1979.82018       889.910090       979.910090                                              
                                 901         1980.01998       890.009990       980.009990                                              
                                 902         1980.21978       890.109890       980.109890                                              
                                 903         1980.41958       890.209790       980.209790                                              
                                 904         1980.61938       890.309690       980.309690                                              
                                 905         1980.81918       890.409590       980.409590                                              
                                 906         1981.01898       890.509491       980.509491                                              
                                 907         1981.21878       890.609391       980.609391                                              
                                 908         1981.41858       890.709291       980.709291                                              
                                 909         1981.61838       890.809191       980.809191                                              
                                 910         1981.81818       890.909091       980.909091                                              
                                 911         1982.01798       891.008991       981.008991                                              
                                 912         1982.21778       891.108891       981.108891                                              
                                 913         1982.41758       891.208791       981.208791                                              
                                 914         1982.61738       891.308691       981.308691                                              
                                 915         1982.81718       891.408591       981.408591                                              
                                 916         1983.01698       891.508492       981.508492                                              
                                 917         1983.21678       891.608392       981.608392                                              
                                 918         1983.41658       891.708292       981.708292                                              
                                 919         1983.61638       891.808192       981.808192                                              
                                 920         1983.81618       891.908092       981.908092                                              
                                 921         1984.01598       892.007992       982.007992                                              
                                 922         1984.21578       892.107892       982.107892                                              
                                 923         1984.41558       892.207792       982.207792                                              
                                 924         1984.61538       892.307692       982.307692                                              
                                 925         1984.81518       892.407592       982.407592                                              
                                 926         1985.01499       892.507493       982.507493                                              
                                 927         1985.21479       892.607393       982.607393                                              
                                 928         1985.41459       892.707293       982.707293                                              
                                 929         1985.61439       892.807193       982.807193                                              
                                 930         1985.81419       892.907093       982.907093                                              
                                 931         1986.01399       893.006993       983.006993                                              
                                 932         1986.21379       893.106893       983.106893                                              
                                 933         1986.41359       893.206793       983.206793                                              
                                 934         1986.61339       893.306693       983.306693                                              
                                 935         1986.81319       893.406593       983.406593                                              
                                 936         1987.01299       893.506494       983.506494                                              
                                 937         1987.21279       893.606394       983.606394                                              
                                 938         1987.41259       893.706294       983.706294                                              
                                 939         1987.61239       893.806194       983.806194                                              
                                 940         1987.81219       893.906094       983.906094                                              
                                 941         1988.01199       894.005994       984.005994                                              
                                 942         1988.21179       894.105894       984.105894                                              
                                 943         1988.41159       894.205794       984.205794                                              
                                 944         1988.61139       894.305694       984.305694                                              
                                 945         1988.81119       894.405594       984.405594                                              
                                 946         1989.01099       894.505495       984.505495                                              
                                 947         1989.21079       894.605395       984.605395                                              
                                 948         1989.41059       894.705295       984.705295                                              
                                 949         1989.61039       894.805195       984.805195                                              
                                 950         1989.81019       894.905095       984.905095                                              
                                 951         1990.00999       895.004995       985.004995                                              
                                 952         1990.20979       895.104895       985.104895                                              
                                 953         1990.40959       895.204795       985.204795                                              
                                 954         1990.60939       895.304695       985.304695                                              
                                 955         1990.80919       895.404595       985.404595                                              
                                 956         1991.00899       895.504496       985.504496                                              
                                 957         1991.20879       895.604396       985.604396                                              
                                 958         1991.40859       895.704296       985.704296                                              
                                 959         1991.60839       895.804196       985.804196                                              
                                 960         1991.80819       895.904096       985.904096                                              
                                 961         1992.00799       896.003996       986.003996                                              
                                 962         1992.20779       896.103896       986.103896                                              
                                 963         1992.40759       896.203796       986.203796                                              
                                 964         1992.60739       896.303696       986.303696                                              
                                 965         1992.80719       896.403596       986.403596                                              
                                 966         1993.00699       896.503497       986.503497                                              
                                 967         1993.20679       896.603397       986.603397                                              
                                 968         1993.40659       896.703297       986.703297                                              
                                 969         1993.60639       896.803197       986.803197                                              
                                 970         1993.80619       896.903097       986.903097                                              
                                 971         1994.00599       897.002997       987.002997                                              
                                 972         1994.20579       897.102897       987.102897                                              
                                 973         1994.40559       897.202797       987.202797                                              
                                 974         1994.60539       897.302697       987.302697                                              
                                 975         1994.80519       897.402597       987.402597                                              
                                 976         1995.00500       897.502498       987.502498                                              
                                 977         1995.20480       897.602398       987.602398                                              
                                 978         1995.40460       897.702298       987.702298                                              
                                 979         1995.60440       897.802198       987.802198                                              
                                 980         1995.80420       897.902098       987.902098                                              
                                 981         1996.00400       898.001998       988.001998                                              
                                 982         1996.20380       898.101898       988.101898                                              
                                 983         1996.40360       898.201798       988.201798                                              
                                 984         1996.60340       898.301698       988.301698                                              
                                 985         1996.80320       898.401598       988.401598                                              
                                 986         1997.00300       898.501499       988.501499                                              
                                 987         1997.20280       898.601399       988.601399                                              
                                 988         1997.40260       898.701299       988.701299                                              
                                 989         1997.60240       898.801199       988.801199                                              
                                 990         1997.80220       898.901099       988.901099                                              
                                 991         1998.00200       899.000999       989.000999                                              
                                 992         1998.20180       899.100899       989.100899                                              
                                 993         1998.40160       899.200799       989.200799                                              
                                 994         1998.60140       899.300699       989.300699                                              
                                 995         1998.80120       899.400599       989.400599                                              
                                 996         1999.00100       899.500500       989.500500                                              
                                 997         1999.20080       899.600400       989.600400                                              
                                 998         1999.40060       899.700300       989.700300                                              
                                 999         1999.60040       899.800200       989.800200                                              
                                 1000        1999.80020       899.900100       989.900100                                              
                                 1001        2000.00000       900.000000       990.000000                                              
 --------------------------------------------------------------------------------------------------------------------------------------



 CSUB PACKAGE COMPRESSION INDICES
 ----------------------------------------------------------------------------------------------------------
 INTERBED                                                                                                  
 NUMBER            CELLID               CC               CR        BOUNDNAME                               
 ----------------------------------------------------------------------------------------------------------
 1                (1,1,2)         20.9326053       2.093260534E-02 IB1                                     
 ----------------------------------------------------------------------------------------------------------




  VOLUME BUDGET FOR ENTIRE MODEL AT END OF TIME STEP    1, STRESS PERIOD   1
  ---------------------------------------------------------------------------------------------------

     CUMULATIVE VOLUME      L**3       RATES FOR THIS TIME STEP      L**3/T          PACKAGE NAME    
     ------------------                 ------------------------                     ----------------

           IN:                                      IN:
           ---                                      ---
              STO-SS =           0.0000                STO-SS =           0.0000     STORAGE                          
      CSUB-CGELASTIC =           0.0000        CSUB-CGELASTIC =           0.0000     CSUB                             
        CSUB-ELASTIC =       1.2358E-02          CSUB-ELASTIC =       3.2255E-02     CSUB                             
      CSUB-INELASTIC =       2.7865E-02        CSUB-INELASTIC =       7.2728E-02     CSUB                             
      CSUB-WATERCOMP =           0.0000        CSUB-WATERCOMP =           0.0000     CSUB                             
                 CHD =           0.0000                   CHD =           0.0000     CHD_0                            

            TOTAL IN =       4.0223E-02              TOTAL IN =           0.1050

          OUT:                                     OUT:
          ----                                     ----
              STO-SS =           0.0000                STO-SS =           0.0000     STORAGE                          
      CSUB-CGELASTIC =           0.0000        CSUB-CGELASTIC =           0.0000     CSUB                             
        CSUB-ELASTIC =           0.0000          CSUB-ELASTIC =           0.0000     CSUB                             
      CSUB-INELASTIC =           0.0000        CSUB-INELASTIC =           0.0000     CSUB                             
      CSUB-WATERCOMP =           0.0000        CSUB-WATERCOMP =           0.0000     CSUB                             
                 CHD =       4.0223E-02                   CHD =           0.1050     CHD_0                            

           TOTAL OUT =       4.0223E-02             TOTAL OUT =           0.1050

            IN - OUT =       6.3983E-10              IN - OUT =       1.6700E-09

 PERCENT DISCREPANCY =           0.00     PERCENT DISCREPANCY =           0.00




         TIME SUMMARY AT END OF TIME STEP    1 IN STRESS PERIOD    1
                    SECONDS     MINUTES      HOURS       DAYS        YEARS
                    -----------------------------------------------------------
   TIME STEP LENGTH  33103.      551.72      9.1953     0.38314     1.04897E-03
 STRESS PERIOD TIME  33103.      551.72      9.1953     0.38314     1.04897E-03
         TOTAL TIME  33103.      551.72      9.1953     0.38314     1.04897E-03


end timestep


start timestep kper="1" kstp="2" mode="normal"



  VOLUME BUDGET FOR ENTIRE MODEL AT END OF TIME STEP    2, STRESS PERIOD   1
  ---------------------------------------------------------------------------------------------------

     CUMULATIVE VOLUME      L**3       RATES FOR THIS TIME STEP      L**3/T          PACKAGE NAME    
     ------------------                 ------------------------                     ----------------

           IN:                                      IN:
           ---                                      ---
              STO-SS =           0.0000                STO-SS =           0.0000     STORAGE                          
      CSUB-CGELASTIC =           0.0000        CSUB-CGELASTIC =           0.0000     CSUB                             
        CSUB-ELASTIC =       1.8717E-02          CSUB-ELASTIC =       1.5807E-02     CSUB                             
      CSUB-INELASTIC =       4.4701E-02        CSUB-INELASTIC =       4.1850E-02     CSUB                             
      CSUB-WATERCOMP =           0.0000        CSUB-WATERCOMP =           0.0000     CSUB                             
                 CHD =           0.0000                   CHD =           0.0000     CHD_0                            

            TOTAL IN =       6.3418E-02              TOTAL IN =       5.7657E-02

          OUT:                                     OUT:
          ----                                     ----
              STO-SS =           0.0000                STO-SS =           0.0000     STORAGE                          
      CSUB-CGELASTIC =           0.0000        CSUB-CGELASTIC =           0.0000     CSUB                             
        CSUB-ELASTIC =           0.0000          CSUB-ELASTIC =           0.0000     CSUB                             
      CSUB-INELASTIC =           0.0000        CSUB-INELASTIC =           0.0000     CSUB                             
      CSUB-WATERCOMP =           0.0000        CSUB-WATERCOMP =           0.0000     CSUB                             
                 CHD =       6.3418E-02                   CHD =       5.7657E-02     CHD_0                            

           TOTAL OUT =       6.3418E-02             TOTAL OUT =       5.7657E-02

            IN - OUT =       9.3198E-10              IN - OUT =       7.2622E-10

 PERCENT DISCREPANCY =           0.00     PERCENT DISCREPANCY =           0.00




         TIME SUMMARY AT END OF TIME STEP    2 IN STRESS PERIOD    1
                    SECONDS     MINUTES      HOURS       DAYS        YEARS
                    -----------------------------------------------------------
   TIME STEP LENGTH  34758.      579.30      9.6551     0.40229     1.10142E-03
 STRESS PERIOD TIME  67861.      1131.0      18.850     0.78543     2.15040E-03
         TOTAL TIME  67861.      1131.0      18.850     0.78543     2.15040E-03


end timestep


start timestep kper="1" kstp="3" mode="normal"



  VOLUME BUDGET FOR ENTIRE MODEL AT END OF TIME STEP    3, STRESS PERIOD   1
  ---------------------------------------------------------------------------------------------------

     CUMULATIVE VOLUME      L**3       RATES FOR THIS TIME STEP      L**3/T          PACKAGE NAME    
     ------------------                 ------------------------                     ----------------

           IN:                                      IN:
           ---                                      ---
              STO-SS =           0.0000                STO-SS =           0.0000     STORAGE                          
      CSUB-CGELASTIC =           0.0000        CSUB-CGELASTIC =           0.0000     CSUB                             
        CSUB-ELASTIC =       2.3693E-02          CSUB-ELASTIC =       1.1780E-02     CSUB                             
      CSUB-INELASTIC =       5.7821E-02        CSUB-INELASTIC =       3.1059E-02     CSUB                             
      CSUB-WATERCOMP =           0.0000        CSUB-WATERCOMP =           0.0000     CSUB                             
                 CHD =           0.0000                   CHD =           0.0000     CHD_0                            

            TOTAL IN =       8.1514E-02              TOTAL IN =       4.2839E-02

          OUT:                                     OUT:
          ----                                     ----
              STO-SS =           0.0000                STO-SS =           0.0000     STORAGE                          
      CSUB-CGELASTIC =           0.0000        CSUB-CGELASTIC =           0.0000     CSUB                             
        CSUB-ELASTIC =           0.0000          CSUB-ELASTIC =           0.0000     CSUB                             
      CSUB-INELASTIC =           0.0000        CSUB-INELASTIC =           0.0000     CSUB                             
      CSUB-WATERCOMP =           0.0000        CSUB-WATERCOMP =           0.0000     CSUB                             
                 CHD =       8.1514E-02                   CHD =       4.2839E-02     CHD_0                            

           TOTAL OUT =       8.1514E-02             TOTAL OUT =       4.2839E-02

            IN - OUT =       1.1320E-09              IN - OUT =       4.7346E-10

 PERCENT DISCREPANCY =           0.00     PERCENT DISCREPANCY =           0.00




         TIME SUMMARY AT END OF TIME STEP    3 IN STRESS PERIOD    1
                    SECONDS     MINUTES      HOURS       DAYS        YEARS
                    -----------------------------------------------------------
   TIME STEP LENGTH  36496.      608.27      10.138     0.42241     1.15649E-03
 STRESS PERIOD TIME 1.04358E+05  1739.3      28.988      1.2078     3.30689E-03
         TOTAL TIME 1.04358E+05  1739.3      28.988      1.2078     3.30689E-03


end timestep


start timestep kper="1" kstp="4" mode="normal"



  VOLUME BUDGET FOR ENTIRE MODEL AT END OF TIME STEP    4, STRESS PERIOD   1
  ---------------------------------------------------------------------------------------------------

     CUMULATIVE VOLUME      L**3       RATES FOR THIS TIME STEP      L**3/T          PACKAGE NAME    
     ------------------                 ------------------------                     ----------------

           IN:                                      IN:
           ---                                      ---
              STO-SS =           0.0000                STO-SS =           0.0000     STORAGE                          
      CSUB-CGELASTIC =           0.0000        CSUB-CGELASTIC =           0.0000     CSUB                             
        CSUB-ELASTIC =       2.8011E-02          CSUB-ELASTIC =       9.7342E-03     CSUB                             
      CSUB-INELASTIC =       6.9159E-02        CSUB-INELASTIC =       2.5564E-02     CSUB                             
      CSUB-WATERCOMP =           0.0000        CSUB-WATERCOMP =           0.0000     CSUB                             
                 CHD =           0.0000                   CHD =           0.0000     CHD_0                            

            TOTAL IN =       9.7170E-02              TOTAL IN =       3.5298E-02

          OUT:                                     OUT:
          ----                                     ----
              STO-SS =           0.0000                STO-SS =           0.0000     STORAGE                          
      CSUB-CGELASTIC =           0.0000        CSUB-CGELASTIC =           0.0000     CSUB                             
        CSUB-ELASTIC =           0.0000          CSUB-ELASTIC =           0.0000     CSUB                             
      CSUB-INELASTIC =           0.0000        CSUB-INELASTIC =           0.0000     CSUB                             
      CSUB-WATERCOMP =           0.0000        CSUB-WATERCOMP =           0.0000     CSUB                             
                 CHD =       9.7170E-02                   CHD =       3.5298E-02     CHD_0                            

           TOTAL OUT =       9.7170E-02             TOTAL OUT =       3.5298E-02

            IN - OUT =       3.1597E-09              IN - OUT =       4.5719E-09

 PERCENT DISCREPANCY =           0.00     PERCENT DISCREPANCY =           0.00




         TIME SUMMARY AT END OF TIME STEP    4 IN STRESS PERIOD    1
                    SECONDS     MINUTES      HOURS       DAYS        YEARS
                    -----------------------------------------------------------
   TIME STEP LENGTH  38321.      638.68      10.645     0.44353     1.21432E-03
 STRESS PERIOD TIME 1.42679E+05  2378.0      39.633      1.6514     4.52121E-03
         TOTAL TIME 1.42679E+05  2378.0      39.633      1.6514     4.52121E-03


end timestep


start timestep kper="1" kstp="5" mode="normal"



  VOLUME BUDGET FOR ENTIRE MODEL AT END OF TIME STEP    5, STRESS PERIOD   1
  ---------------------------------------------------------------------------------------------------

     CUMULATIVE VOLUME      L**3       RATES FOR THIS TIME STEP      L**3/T          PACKAGE NAME    
     ------------------                 ------------------------                     ----------------

           IN:                                      IN:
           ---                                      ---
              STO-SS =           0.0000                STO-SS =           0.0000     STORAGE                          
      CSUB-CGELASTIC =           0.0000        CSUB-CGELASTIC =           0.0000     CSUB                             
        CSUB-ELASTIC =       3.1936E-02          CSUB-ELASTIC =       8.4288E-03     CSUB                             
      CSUB-INELASTIC =       7.9437E-02        CSUB-INELASTIC =       2.2069E-02     CSUB                             
      CSUB-WATERCOMP =           0.0000        CSUB-WATERCOMP =           0.0000     CSUB                             
                 CHD =           0.0000                   CHD =           0.0000     CHD_0                            

            TOTAL IN =           0.1114              TOTAL IN =       3.0498E-02

          OUT:                                     OUT:
          ----                                     ----
              STO-SS =           0.0000                STO-SS =           0.0000     STORAGE                          
      CSUB-CGELASTIC =           0.0000        CSUB-CGELASTIC =           0.0000     CSUB                             
        CSUB-ELASTIC =           0.0000          CSUB-ELASTIC =           0.0000     CSUB                             
      CSUB-INELASTIC =           0.0000        CSUB-INELASTIC =           0.0000     CSUB                             
      CSUB-WATERCOMP =           0.0000        CSUB-WATERCOMP =           0.0000     CSUB                             
                 CHD =           0.1114                   CHD =       3.0498E-02     CHD_0                            

           TOTAL OUT =           0.1114             TOTAL OUT =       3.0498E-02

            IN - OUT =       3.1992E-09              IN - OUT =       8.4665E-11

 PERCENT DISCREPANCY =           0.00     PERCENT DISCREPANCY =           0.00




         TIME SUMMARY AT END OF TIME STEP    5 IN STRESS PERIOD    1
                    SECONDS     MINUTES      HOURS       DAYS        YEARS
                    -----------------------------------------------------------
   TIME STEP LENGTH  40237.      670.62      11.177     0.46571     1.27504E-03
 STRESS PERIOD TIME 1.82916E+05  3048.6      50.810      2.1171     5.79625E-03
         TOTAL TIME 1.82916E+05  3048.6      50.810      2.1171     5.79625E-03


end timestep


start timestep kper="1" kstp="6" mode="normal"



  VOLUME BUDGET FOR ENTIRE MODEL AT END OF TIME STEP    6, STRESS PERIOD   1
  ---------------------------------------------------------------------------------------------------

     CUMULATIVE VOLUME      L**3       RATES FOR THIS TIME STEP      L**3/T          PACKAGE NAME    
     ------------------                 ------------------------                     ----------------

           IN:                                      IN:
           ---                                      ---
              STO-SS =           0.0000                STO-SS =           0.0000     STORAGE                          
      CSUB-CGELASTIC =           0.0000        CSUB-CGELASTIC =           0.0000     CSUB                             
        CSUB-ELASTIC =       3.5601E-02          CSUB-ELASTIC =       7.4941E-03     CSUB                             
      CSUB-INELASTIC =       8.9017E-02        CSUB-INELASTIC =       1.9593E-02     CSUB                             
      CSUB-WATERCOMP =           0.0000        CSUB-WATERCOMP =           0.0000     CSUB                             
                 CHD =           0.0000                   CHD =           0.0000     CHD_0                            

            TOTAL IN =           0.1246              TOTAL IN =       2.7087E-02

          OUT:                                     OUT:
          ----                                     ----
              STO-SS =           0.0000                STO-SS =           0.0000     STORAGE                          
      CSUB-CGELASTIC =           0.0000        CSUB-CGELASTIC =           0.0000     CSUB                             
        CSUB-ELASTIC =           0.0000          CSUB-ELASTIC =           0.0000     CSUB                             
      CSUB-INELASTIC =           0.0000        CSUB-INELASTIC =           0.0000     CSUB                             
      CSUB-WATERCOMP =           0.0000        CSUB-WATERCOMP =           0.0000     CSUB                             
                 CHD =           0.1246                   CHD =       2.7087E-02     CHD_0                            

           TOTAL OUT =           0.1246             TOTAL OUT =       2.7087E-02

            IN - OUT =       3.2262E-09              IN - OUT =       5.5318E-11

 PERCENT DISCREPANCY =           0.00     PERCENT DISCREPANCY =           0.00




         TIME SUMMARY AT END OF TIME STEP    6 IN STRESS PERIOD    1
                    SECONDS     MINUTES      HOURS       DAYS        YEARS
                    -----------------------------------------------------------
   TIME STEP LENGTH  42249.      704.15      11.736     0.48899     1.33879E-03
 STRESS PERIOD TIME 2.25165E+05  3752.7      62.546      2.6061     7.13504E-03
         TOTAL TIME 2.25165E+05  3752.7      62.546      2.6061     7.13504E-03


end timestep


start timestep kper="1" kstp="7" mode="normal"



  VOLUME BUDGET FOR ENTIRE MODEL AT END OF TIME STEP    7, STRESS PERIOD   1
  ---------------------------------------------------------------------------------------------------

     CUMULATIVE VOLUME      L**3       RATES FOR THIS TIME STEP      L**3/T          PACKAGE NAME    
     ------------------                 ------------------------                     ----------------

           IN:                                      IN:
           ---                                      ---
              STO-SS =           0.0000                STO-SS =           0.0000     STORAGE                          
      CSUB-CGELASTIC =           0.0000        CSUB-CGELASTIC =           0.0000     CSUB                             
        CSUB-ELASTIC =       3.9085E-02          CSUB-ELASTIC =       6.7856E-03     CSUB                             
      CSUB-INELASTIC =       9.8113E-02        CSUB-INELASTIC =       1.7714E-02     CSUB                             
      CSUB-WATERCOMP =           0.0000        CSUB-WATERCOMP =           0.0000     CSUB                             
                 CHD =           0.0000                   CHD =           0.0000     CHD_0                            

            TOTAL IN =           0.1372              TOTAL IN =       2.4500E-02

          OUT:                                     OUT:
          ----                                     ----
              STO-SS =           0.0000                STO-SS =           0.0000     STORAGE                          
      CSUB-CGELASTIC =           0.0000        CSUB-CGELASTIC =           0.0000     CSUB                             
        CSUB-ELASTIC =           0.0000          CSUB-ELASTIC =           0.0000     CSUB                             
      CSUB-INELASTIC =           0.0000        CSUB-INELASTIC =           0.0000     CSUB                             
      CSUB-WATERCOMP =           0.0000        CSUB-WATERCOMP =           0.0000     CSUB                             
                 CHD =           0.1372                   CHD =       2.4500E-02     CHD_0                            

           TOTAL OUT =           0.1372             TOTAL OUT =       2.4500E-02

            IN - OUT =       3.2514E-09              IN - OUT =       4.9017E-11

 PERCENT DISCREPANCY =           0.00     PERCENT DISCREPANCY =           0.00




         TIME SUMMARY AT END OF TIME STEP    7 IN STRESS PERIOD    1
                    SECONDS     MINUTES      HOURS       DAYS        YEARS
                    -----------------------------------------------------------
   TIME STEP LENGTH  44361.      739.36      12.323     0.51344     1.40573E-03
 STRESS PERIOD TIME 2.69526E+05  4492.1      74.868      3.1195     8.54076E-03
         TOTAL TIME 2.69526E+05  4492.1      74.868      3.1195     8.54076E-03


end timestep


start timestep kper="1" kstp="8" mode="normal"



  VOLUME BUDGET FOR ENTIRE MODEL AT END OF TIME STEP    8, STRESS PERIOD   1
  ---------------------------------------------------------------------------------------------------

     CUMULATIVE VOLUME      L**3       RATES FOR THIS TIME STEP      L**3/T          PACKAGE NAME    
     ------------------                 ------------------------                     ----------------

           IN:                                      IN:
           ---                                      ---
              STO-SS =           0.0000                STO-SS =           0.0000     STORAGE                          
      CSUB-CGELASTIC =           0.0000        CSUB-CGELASTIC =           0.0000     CSUB                             
        CSUB-ELASTIC =       4.2436E-02          CSUB-ELASTIC =       6.2171E-03     CSUB                             
      CSUB-INELASTIC =           0.1069        CSUB-INELASTIC =       1.6229E-02     CSUB                             
      CSUB-WATERCOMP =           0.0000        CSUB-WATERCOMP =           0.0000     CSUB                             
                 CHD =           0.0000                   CHD =           0.0000     CHD_0                            

            TOTAL IN =           0.1493              TOTAL IN =       2.2446E-02

          OUT:                                     OUT:
          ----                                     ----
              STO-SS =           0.0000                STO-SS =           0.0000     STORAGE                          
      CSUB-CGELASTIC =           0.0000        CSUB-CGELASTIC =           0.0000     CSUB                             
        CSUB-ELASTIC =           0.0000          CSUB-ELASTIC =           0.0000     CSUB                             
      CSUB-INELASTIC =           0.0000        CSUB-INELASTIC =           0.0000     CSUB                             
      CSUB-WATERCOMP =           0.0000        CSUB-WATERCOMP =           0.0000     CSUB                             
                 CHD =           0.1493                   CHD =       2.2446E-02     CHD_0                            

           TOTAL OUT =           0.1493             TOTAL OUT =       2.2446E-02

            IN - OUT =       3.2777E-09              IN - OUT =       4.8738E-11

 PERCENT DISCREPANCY =           0.00     PERCENT DISCREPANCY =           0.00




         TIME SUMMARY AT END OF TIME STEP    8 IN STRESS PERIOD    1
                    SECONDS     MINUTES      HOURS       DAYS        YEARS
                    -----------------------------------------------------------
   TIME STEP LENGTH  46579.      776.32      12.939     0.53911     1.47601E-03
 STRESS PERIOD TIME 3.16105E+05  5268.4      87.807      3.6586     1.00168E-02
         TOTAL TIME 3.16105E+05  5268.4      87.807      3.6586     1.00168E-02


end timestep


start timestep kper="1" kstp="9" mode="normal"



  VOLUME BUDGET FOR ENTIRE MODEL AT END OF TIME STEP    9, STRESS PERIOD   1
  ---------------------------------------------------------------------------------------------------

     CUMULATIVE VOLUME      L**3       RATES FOR THIS TIME STEP      L**3/T          PACKAGE NAME    
     ------------------                 ------------------------                     ----------------

           IN:                                      IN:
           ---                                      ---
              STO-SS =           0.0000                STO-SS =           0.0000     STORAGE                          
      CSUB-CGELASTIC =           0.0000        CSUB-CGELASTIC =           0.0000     CSUB                             
        CSUB-ELASTIC =       4.5687E-02          CSUB-ELASTIC =       5.7428E-03     CSUB                             
      CSUB-INELASTIC =           0.1154        CSUB-INELASTIC =       1.5017E-02     CSUB                             
      CSUB-WATERCOMP =           0.0000        CSUB-WATERCOMP =           0.0000     CSUB                             
                 CHD =           0.0000                   CHD =           0.0000     CHD_0                            

            TOTAL IN =           0.1610              TOTAL IN =       2.0760E-02

          OUT:                                     OUT:
          ----                                     ----
              STO-SS =           0.0000                STO-SS =           0.0000     STORAGE                          
      CSUB-CGELASTIC =           0.0000        CSUB-CGELASTIC =           0.0000     CSUB                             
        CSUB-ELASTIC =           0.0000          CSUB-ELASTIC =           0.0000     CSUB                             
      CSUB-INELASTIC =           0.0000        CSUB-INELASTIC =           0.0000     CSUB                             
      CSUB-WATERCOMP =           0.0000        CSUB-WATERCOMP =           0.0000     CSUB                             
                 CHD =           0.1610                   CHD =       2.0760E-02     CHD_0                            

           TOTAL OUT =           0.1610             TOTAL OUT =       2.0760E-02

            IN - OUT =       3.3095E-09              IN - OUT =       5.6302E-11

 PERCENT DISCREPANCY =           0.00     PERCENT DISCREPANCY =           0.00




         TIME SUMMARY AT END OF TIME STEP    9 IN STRESS PERIOD    1
                    SECONDS     MINUTES      HOURS       DAYS        YEARS
                    -----------------------------------------------------------
   TIME STEP LENGTH  48908.      815.14      13.586     0.56607     1.54981E-03
 STRESS PERIOD TIME 3.65014E+05  6083.6      101.39      4.2247     1.15666E-02
         TOTAL TIME 3.65014E+05  6083.6      101.39      4.2247     1.15666E-02


end timestep


start timestep kper="1" kstp="10" mode="normal"



  VOLUME BUDGET FOR ENTIRE MODEL AT END OF TIME STEP   10, STRESS PERIOD   1
  ---------------------------------------------------------------------------------------------------

     CUMULATIVE VOLUME      L**3       RATES FOR THIS TIME STEP      L**3/T          PACKAGE NAME    
     ------------------                 ------------------------                     ----------------

           IN:                                      IN:
           ---                                      ---
              STO-SS =           0.0000                STO-SS =           0.0000     STORAGE                          
      CSUB-CGELASTIC =           0.0000        CSUB-CGELASTIC =           0.0000     CSUB                             
        CSUB-ELASTIC =       4.8857E-02          CSUB-ELASTIC =       5.3340E-03     CSUB                             
      CSUB-INELASTIC =           0.1237        CSUB-INELASTIC =       1.4008E-02     CSUB                             
      CSUB-WATERCOMP =           0.0000        CSUB-WATERCOMP =           0.0000     CSUB                             
                 CHD =           0.0000                   CHD =           0.0000     CHD_0                            

            TOTAL IN =           0.1725              TOTAL IN =       1.9342E-02

          OUT:                                     OUT:
          ----                                     ----
              STO-SS =           0.0000                STO-SS =           0.0000     STORAGE                          
      CSUB-CGELASTIC =           0.0000        CSUB-CGELASTIC =           0.0000     CSUB                             
        CSUB-ELASTIC =           0.0000          CSUB-ELASTIC =           0.0000     CSUB                             
      CSUB-INELASTIC =           0.0000        CSUB-INELASTIC =           0.0000     CSUB                             
      CSUB-WATERCOMP =           0.0000        CSUB-WATERCOMP =           0.0000     CSUB                             
                 CHD =           0.1725                   CHD =       1.9342E-02     CHD_0                            

           TOTAL OUT =           0.1725             TOTAL OUT =       1.9342E-02

            IN - OUT =       3.3531E-09              IN - OUT =       7.3362E-11

 PERCENT DISCREPANCY =           0.00     PERCENT DISCREPANCY =           0.00




         TIME SUMMARY AT END OF TIME STEP   10 IN STRESS PERIOD    1
                    SECONDS     MINUTES      HOURS       DAYS        YEARS
                    -----------------------------------------------------------
   TIME STEP LENGTH  51354.      855.90      14.265     0.59437     1.62730E-03
 STRESS PERIOD TIME 4.16368E+05  6939.5      115.66      4.8191     1.31939E-02
         TOTAL TIME 4.16368E+05  6939.5      115.66      4.8191     1.31939E-02


end timestep


start timestep kper="1" kstp="11" mode="normal"



  VOLUME BUDGET FOR ENTIRE MODEL AT END OF TIME STEP   11, STRESS PERIOD   1
  ---------------------------------------------------------------------------------------------------

     CUMULATIVE VOLUME      L**3       RATES FOR THIS TIME STEP      L**3/T          PACKAGE NAME    
     ------------------                 ------------------------                     ----------------

           IN:                                      IN:
           ---                                      ---
              STO-SS =           0.0000                STO-SS =           0.0000     STORAGE                          
      CSUB-CGELASTIC =           0.0000        CSUB-CGELASTIC =           0.0000     CSUB                             
        CSUB-ELASTIC =       5.1960E-02          CSUB-ELASTIC =       4.9714E-03     CSUB                             
      CSUB-INELASTIC =           0.1319        CSUB-INELASTIC =       1.3154E-02     CSUB                             
      CSUB-WATERCOMP =           0.0000        CSUB-WATERCOMP =           0.0000     CSUB                             
                 CHD =           0.0000                   CHD =           0.0000     CHD_0                            

            TOTAL IN =           0.1839              TOTAL IN =       1.8125E-02

          OUT:                                     OUT:
          ----                                     ----
              STO-SS =           0.0000                STO-SS =           0.0000     STORAGE                          
      CSUB-CGELASTIC =           0.0000        CSUB-CGELASTIC =           0.0000     CSUB                             
        CSUB-ELASTIC =           0.0000          CSUB-ELASTIC =           0.0000     CSUB                             
      CSUB-INELASTIC =           0.0000        CSUB-INELASTIC =           0.0000     CSUB                             
      CSUB-WATERCOMP =           0.0000        CSUB-WATERCOMP =           0.0000     CSUB                             
                 CHD =           0.1839                   CHD =       1.8125E-02     CHD_0                            

           TOTAL OUT =           0.1839             TOTAL OUT =       1.8125E-02

            IN - OUT =       3.6937E-09              IN - OUT =       5.4565E-10

 PERCENT DISCREPANCY =           0.00     PERCENT DISCREPANCY =           0.00




         TIME SUMMARY AT END OF TIME STEP   11 IN STRESS PERIOD    1
                    SECONDS     MINUTES      HOURS       DAYS        YEARS
                    -----------------------------------------------------------
   TIME STEP LENGTH  53922.      898.69      14.978     0.62409     1.70867E-03
 STRESS PERIOD TIME 4.70289E+05  7838.2      130.64      5.4432     1.49026E-02
         TOTAL TIME 4.70289E+05  7838.2      130.64      5.4432     1.49026E-02


end timestep


start timestep kper="1" kstp="12" mode="normal"



  VOLUME BUDGET FOR ENTIRE MODEL AT END OF TIME STEP   12, STRESS PERIOD   1
  ---------------------------------------------------------------------------------------------------

     CUMULATIVE VOLUME      L**3       RATES FOR THIS TIME STEP      L**3/T          PACKAGE NAME    
     ------------------                 ------------------------                     ----------------

           IN:                                      IN:
           ---                                      ---
              STO-SS =           0.0000                STO-SS =           0.0000     STORAGE                          
      CSUB-CGELASTIC =           0.0000        CSUB-CGELASTIC =           0.0000     CSUB                             
        CSUB-ELASTIC =       5.5002E-02          CSUB-ELASTIC =       4.6418E-03     CSUB                             
      CSUB-INELASTIC =           0.1400        CSUB-INELASTIC =       1.2422E-02     CSUB                             
      CSUB-WATERCOMP =           0.0000        CSUB-WATERCOMP =           0.0000     CSUB                             
                 CHD =           0.0000                   CHD =           0.0000     CHD_0                            

            TOTAL IN =           0.1950              TOTAL IN =       1.7064E-02

          OUT:                                     OUT:
          ----                                     ----
              STO-SS =           0.0000                STO-SS =           0.0000     STORAGE                          
      CSUB-CGELASTIC =           0.0000        CSUB-CGELASTIC =           0.0000     CSUB                             
        CSUB-ELASTIC =           0.0000          CSUB-ELASTIC =           0.0000     CSUB                             
      CSUB-INELASTIC =           0.0000        CSUB-INELASTIC =           0.0000     CSUB                             
      CSUB-WATERCOMP =           0.0000        CSUB-WATERCOMP =           0.0000     CSUB                             
                 CHD =           0.1950                   CHD =       1.7064E-02     CHD_0                            

           TOTAL OUT =           0.1950             TOTAL OUT =       1.7064E-02

            IN - OUT =       3.9542E-09              IN - OUT =       3.9753E-10

 PERCENT DISCREPANCY =           0.00     PERCENT DISCREPANCY =           0.00




         TIME SUMMARY AT END OF TIME STEP   12 IN STRESS PERIOD    1
                    SECONDS     MINUTES      HOURS       DAYS        YEARS
                    -----------------------------------------------------------
   TIME STEP LENGTH  56618.      943.63      15.727     0.65530     1.79410E-03
 STRESS PERIOD TIME 5.26907E+05  8781.8      146.36      6.0985     1.66967E-02
         TOTAL TIME 5.26907E+05  8781.8      146.36      6.0985     1.66967E-02


end timestep


start timestep kper="1" kstp="13" mode="normal"



  VOLUME BUDGET FOR ENTIRE MODEL AT END OF TIME STEP   13, STRESS PERIOD   1
  ---------------------------------------------------------------------------------------------------

     CUMULATIVE VOLUME      L**3       RATES FOR THIS TIME STEP      L**3/T          PACKAGE NAME    
     ------------------                 ------------------------                     ----------------

           IN:                                      IN:
           ---                                      ---
              STO-SS =           0.0000                STO-SS =           0.0000     STORAGE                          
      CSUB-CGELASTIC =           0.0000        CSUB-CGELASTIC =           0.0000     CSUB                             
        CSUB-ELASTIC =       5.7985E-02          CSUB-ELASTIC =       4.3360E-03     CSUB                             
      CSUB-INELASTIC =           0.1482        CSUB-INELASTIC =       1.1791E-02     CSUB                             
      CSUB-WATERCOMP =           0.0000        CSUB-WATERCOMP =           0.0000     CSUB                             
                 CHD =           0.0000                   CHD =           0.0000     CHD_0                            

            TOTAL IN =           0.2061              TOTAL IN =       1.6127E-02

          OUT:                                     OUT:
          ----                                     ----
              STO-SS =           0.0000                STO-SS =           0.0000     STORAGE                          
      CSUB-CGELASTIC =           0.0000        CSUB-CGELASTIC =           0.0000     CSUB                             
        CSUB-ELASTIC =           0.0000          CSUB-ELASTIC =           0.0000     CSUB                             
      CSUB-INELASTIC =           0.0000        CSUB-INELASTIC =           0.0000     CSUB                             
      CSUB-WATERCOMP =           0.0000        CSUB-WATERCOMP =           0.0000     CSUB                             
                 CHD =           0.2061                   CHD =       1.6127E-02     CHD_0                            

           TOTAL OUT =           0.2061             TOTAL OUT =       1.6127E-02

            IN - OUT =       4.1763E-09              IN - OUT =       3.2290E-10

 PERCENT DISCREPANCY =           0.00     PERCENT DISCREPANCY =           0.00




         TIME SUMMARY AT END OF TIME STEP   13 IN STRESS PERIOD    1
                    SECONDS     MINUTES      HOURS       DAYS        YEARS
                    -----------------------------------------------------------
   TIME STEP LENGTH  59448.      990.81      16.513     0.68806     1.88381E-03
 STRESS PERIOD TIME 5.86355E+05  9772.6      162.88      6.7865     1.85805E-02
         TOTAL TIME 5.86355E+05  9772.6      162.88      6.7865     1.85805E-02


end timestep


start timestep kper="1" kstp="14" mode="normal"



  VOLUME BUDGET FOR ENTIRE MODEL AT END OF TIME STEP   14, STRESS PERIOD   1
  ---------------------------------------------------------------------------------------------------

     CUMULATIVE VOLUME      L**3       RATES FOR THIS TIME STEP      L**3/T          PACKAGE NAME    
     ------------------                 ------------------------                     ----------------

           IN:                                      IN:
           ---                                      ---
              STO-SS =           0.0000                STO-SS =           0.0000     STORAGE                          
      CSUB-CGELASTIC =           0.0000        CSUB-CGELASTIC =           0.0000     CSUB                             
        CSUB-ELASTIC =       6.0909E-02          CSUB-ELASTIC =       4.0475E-03     CSUB                             
      CSUB-INELASTIC =           0.1563        CSUB-INELASTIC =       1.1243E-02     CSUB                             
      CSUB-WATERCOMP =           0.0000        CSUB-WATERCOMP =           0.0000     CSUB                             
                 CHD =           0.0000                   CHD =           0.0000     CHD_0                            

            TOTAL IN =           0.2172              TOTAL IN =       1.5291E-02

          OUT:                                     OUT:
          ----                                     ----
              STO-SS =           0.0000                STO-SS =           0.0000     STORAGE                          
      CSUB-CGELASTIC =           0.0000        CSUB-CGELASTIC =           0.0000     CSUB                             
        CSUB-ELASTIC =           0.0000          CSUB-ELASTIC =           0.0000     CSUB                             
      CSUB-INELASTIC =           0.0000        CSUB-INELASTIC =           0.0000     CSUB                             
      CSUB-WATERCOMP =           0.0000        CSUB-WATERCOMP =           0.0000     CSUB                             
                 CHD =           0.2172                   CHD =       1.5291E-02     CHD_0                            

           TOTAL OUT =           0.2172             TOTAL OUT =       1.5291E-02

            IN - OUT =       4.3690E-09              IN - OUT =       2.6663E-10

 PERCENT DISCREPANCY =           0.00     PERCENT DISCREPANCY =           0.00




         TIME SUMMARY AT END OF TIME STEP   14 IN STRESS PERIOD    1
                    SECONDS     MINUTES      HOURS       DAYS        YEARS
                    -----------------------------------------------------------
   TIME STEP LENGTH  62421.      1040.3      17.339     0.72246     1.97800E-03
 STRESS PERIOD TIME 6.48776E+05  10813.      180.22      7.5090     2.05585E-02
         TOTAL TIME 6.48776E+05  10813.      180.22      7.5090     2.05585E-02


end timestep


start timestep kper="1" kstp="15" mode="normal"



  VOLUME BUDGET FOR ENTIRE MODEL AT END OF TIME STEP   15, STRESS PERIOD   1
  ---------------------------------------------------------------------------------------------------

     CUMULATIVE VOLUME      L**3       RATES FOR THIS TIME STEP      L**3/T          PACKAGE NAME    
     ------------------                 ------------------------                     ----------------

           IN:                                      IN:
           ---                                      ---
              STO-SS =           0.0000                STO-SS =           0.0000     STORAGE                          
      CSUB-CGELASTIC =           0.0000        CSUB-CGELASTIC =           0.0000     CSUB                             
        CSUB-ELASTIC =       6.3771E-02          CSUB-ELASTIC =       3.7718E-03     CSUB                             
      CSUB-INELASTIC =           0.1644        CSUB-INELASTIC =       1.0766E-02     CSUB                             
      CSUB-WATERCOMP =           0.0000        CSUB-WATERCOMP =           0.0000     CSUB                             
                 CHD =           0.0000                   CHD =           0.0000     CHD_0                            

            TOTAL IN =           0.2282              TOTAL IN =       1.4537E-02

          OUT:                                     OUT:
          ----                                     ----
              STO-SS =           0.0000                STO-SS =           0.0000     STORAGE                          
      CSUB-CGELASTIC =           0.0000        CSUB-CGELASTIC =           0.0000     CSUB                             
        CSUB-ELASTIC =           0.0000          CSUB-ELASTIC =           0.0000     CSUB                             
      CSUB-INELASTIC =           0.0000        CSUB-INELASTIC =           0.0000     CSUB                             
      CSUB-WATERCOMP =           0.0000        CSUB-WATERCOMP =           0.0000     CSUB                             
                 CHD =           0.2282                   CHD =       1.4537E-02     CHD_0                            

           TOTAL OUT =           0.2282             TOTAL OUT =       1.4537E-02

            IN - OUT =       4.7706E-09              IN - OUT =       5.2942E-10

 PERCENT DISCREPANCY =           0.00     PERCENT DISCREPANCY =           0.00




         TIME SUMMARY AT END OF TIME STEP   15 IN STRESS PERIOD    1
                    SECONDS     MINUTES      HOURS       DAYS        YEARS
                    -----------------------------------------------------------
   TIME STEP LENGTH  65542.      1092.4      18.206     0.75859     2.07690E-03
 STRESS PERIOD TIME 7.14318E+05  11905.      198.42      8.2676     2.26354E-02
         TOTAL TIME 7.14318E+05  11905.      198.42      8.2676     2.26354E-02


end timestep


start timestep kper="1" kstp="16" mode="normal"



  VOLUME BUDGET FOR ENTIRE MODEL AT END OF TIME STEP   16, STRESS PERIOD   1
  ---------------------------------------------------------------------------------------------------

     CUMULATIVE VOLUME      L**3       RATES FOR THIS TIME STEP      L**3/T          PACKAGE NAME    
     ------------------                 ------------------------                     ----------------

           IN:                                      IN:
           ---                                      ---
              STO-SS =           0.0000                STO-SS =           0.0000     STORAGE                          
      CSUB-CGELASTIC =           0.0000        CSUB-CGELASTIC =           0.0000     CSUB                             
        CSUB-ELASTIC =       6.6563E-02          CSUB-ELASTIC =       3.5062E-03     CSUB                             
      CSUB-INELASTIC =           0.1727        CSUB-INELASTIC =       1.0347E-02     CSUB                             
      CSUB-WATERCOMP =           0.0000        CSUB-WATERCOMP =           0.0000     CSUB                             
                 CHD =           0.0000                   CHD =           0.0000     CHD_0                            

            TOTAL IN =           0.2392              TOTAL IN =       1.3853E-02

          OUT:                                     OUT:
          ----                                     ----
              STO-SS =           0.0000                STO-SS =           0.0000     STORAGE                          
      CSUB-CGELASTIC =           0.0000        CSUB-CGELASTIC =           0.0000     CSUB                             
        CSUB-ELASTIC =           0.0000          CSUB-ELASTIC =           0.0000     CSUB                             
      CSUB-INELASTIC =           0.0000        CSUB-INELASTIC =           0.0000     CSUB                             
      CSUB-WATERCOMP =           0.0000        CSUB-WATERCOMP =           0.0000     CSUB                             
                 CHD =           0.2392                   CHD =       1.3853E-02     CHD_0                            

           TOTAL OUT =           0.2392             TOTAL OUT =       1.3853E-02

            IN - OUT =       5.1549E-09              IN - OUT =       4.8245E-10

 PERCENT DISCREPANCY =           0.00     PERCENT DISCREPANCY =           0.00




         TIME SUMMARY AT END OF TIME STEP   16 IN STRESS PERIOD    1
                    SECONDS     MINUTES      HOURS       DAYS        YEARS
                    -----------------------------------------------------------
   TIME STEP LENGTH  68819.      1147.0      19.116     0.79652     2.18074E-03
 STRESS PERIOD TIME 7.83137E+05  13052.      217.54      9.0641     2.48161E-02
         TOTAL TIME 7.83137E+05  13052.      217.54      9.0641     2.48161E-02


end timestep


start timestep kper="1" kstp="17" mode="normal"



  VOLUME BUDGET FOR ENTIRE MODEL AT END OF TIME STEP   17, STRESS PERIOD   1
  ---------------------------------------------------------------------------------------------------

     CUMULATIVE VOLUME      L**3       RATES FOR THIS TIME STEP      L**3/T          PACKAGE NAME    
     ------------------                 ------------------------                     ----------------

           IN:                                      IN:
           ---                                      ---
              STO-SS =           0.0000                STO-SS =           0.0000     STORAGE                          
      CSUB-CGELASTIC =           0.0000        CSUB-CGELASTIC =           0.0000     CSUB                             
        CSUB-ELASTIC =       6.9280E-02          CSUB-ELASTIC =       3.2484E-03     CSUB                             
      CSUB-INELASTIC =           0.1810        CSUB-INELASTIC =       9.9790E-03     CSUB                             
      CSUB-WATERCOMP =           0.0000        CSUB-WATERCOMP =           0.0000     CSUB                             
                 CHD =           0.0000                   CHD =           0.0000     CHD_0                            

            TOTAL IN =           0.2503              TOTAL IN =       1.3227E-02

          OUT:                                     OUT:
          ----                                     ----
              STO-SS =           0.0000                STO-SS =           0.0000     STORAGE                          
      CSUB-CGELASTIC =           0.0000        CSUB-CGELASTIC =           0.0000     CSUB                             
        CSUB-ELASTIC =           0.0000          CSUB-ELASTIC =           0.0000     CSUB                             
      CSUB-INELASTIC =           0.0000        CSUB-INELASTIC =           0.0000     CSUB                             
      CSUB-WATERCOMP =           0.0000        CSUB-WATERCOMP =           0.0000     CSUB                             
                 CHD =           0.2503                   CHD =       1.3227E-02     CHD_0                            

           TOTAL OUT =           0.2503             TOTAL OUT =       1.3227E-02

            IN - OUT =       5.6027E-09              IN - OUT =       5.3551E-10

 PERCENT DISCREPANCY =           0.00     PERCENT DISCREPANCY =           0.00




         TIME SUMMARY AT END OF TIME STEP   17 IN STRESS PERIOD    1
                    SECONDS     MINUTES      HOURS       DAYS        YEARS
                    -----------------------------------------------------------
   TIME STEP LENGTH  72260.      1204.3      20.072     0.83634     2.28978E-03
 STRESS PERIOD TIME 8.55397E+05  14257.      237.61      9.9004     2.71059E-02
         TOTAL TIME 8.55397E+05  14257.      237.61      9.9004     2.71059E-02


end timestep


start timestep kper="1" kstp="18" mode="normal"



  VOLUME BUDGET FOR ENTIRE MODEL AT END OF TIME STEP   18, STRESS PERIOD   1
  ---------------------------------------------------------------------------------------------------

     CUMULATIVE VOLUME      L**3       RATES FOR THIS TIME STEP      L**3/T          PACKAGE NAME    
     ------------------                 ------------------------                     ----------------

           IN:                                      IN:
           ---                                      ---
              STO-SS =           0.0000                STO-SS =           0.0000     STORAGE                          
      CSUB-CGELASTIC =           0.0000        CSUB-CGELASTIC =           0.0000     CSUB                             
        CSUB-ELASTIC =       7.1914E-02          CSUB-ELASTIC =       2.9989E-03     CSUB                             
      CSUB-INELASTIC =           0.1895        CSUB-INELASTIC =       9.6527E-03     CSUB                             
      CSUB-WATERCOMP =           0.0000        CSUB-WATERCOMP =           0.0000     CSUB                             
                 CHD =           0.0000                   CHD =           0.0000     CHD_0                            

            TOTAL IN =           0.2614              TOTAL IN =       1.2652E-02

          OUT:                                     OUT:
          ----                                     ----
              STO-SS =           0.0000                STO-SS =           0.0000     STORAGE                          
      CSUB-CGELASTIC =           0.0000        CSUB-CGELASTIC =           0.0000     CSUB                             
        CSUB-ELASTIC =           0.0000          CSUB-ELASTIC =           0.0000     CSUB                             
      CSUB-INELASTIC =           0.0000        CSUB-INELASTIC =           0.0000     CSUB                             
      CSUB-WATERCOMP =           0.0000        CSUB-WATERCOMP =           0.0000     CSUB                             
                 CHD =           0.2614                   CHD =       1.2652E-02     CHD_0                            

           TOTAL OUT =           0.2614             TOTAL OUT =       1.2652E-02

            IN - OUT =       6.0952E-09              IN - OUT =       5.6079E-10

 PERCENT DISCREPANCY =           0.00     PERCENT DISCREPANCY =           0.00




         TIME SUMMARY AT END OF TIME STEP   18 IN STRESS PERIOD    1
                    SECONDS     MINUTES      HOURS       DAYS        YEARS
                    -----------------------------------------------------------
   TIME STEP LENGTH  75873.      1264.5      21.076     0.87816     2.40427E-03
 STRESS PERIOD TIME 9.31270E+05  15521.      258.69      10.779     2.95102E-02
         TOTAL TIME 9.31270E+05  15521.      258.69      10.779     2.95102E-02


end timestep


start timestep kper="1" kstp="19" mode="normal"



  VOLUME BUDGET FOR ENTIRE MODEL AT END OF TIME STEP   19, STRESS PERIOD   1
  ---------------------------------------------------------------------------------------------------

     CUMULATIVE VOLUME      L**3       RATES FOR THIS TIME STEP      L**3/T          PACKAGE NAME    
     ------------------                 ------------------------                     ----------------

           IN:                                      IN:
           ---                                      ---
              STO-SS =           0.0000                STO-SS =           0.0000     STORAGE                          
      CSUB-CGELASTIC =           0.0000        CSUB-CGELASTIC =           0.0000     CSUB                             
        CSUB-ELASTIC =       7.4456E-02          CSUB-ELASTIC =       2.7572E-03     CSUB                             
      CSUB-INELASTIC =           0.1981        CSUB-INELASTIC =       9.3619E-03     CSUB                             
      CSUB-WATERCOMP =           0.0000        CSUB-WATERCOMP =           0.0000     CSUB                             
                 CHD =           0.0000                   CHD =           0.0000     CHD_0                            

            TOTAL IN =           0.2726              TOTAL IN =       1.2119E-02

          OUT:                                     OUT:
          ----                                     ----
              STO-SS =           0.0000                STO-SS =           0.0000     STORAGE                          
      CSUB-CGELASTIC =           0.0000        CSUB-CGELASTIC =           0.0000     CSUB                             
        CSUB-ELASTIC =           0.0000          CSUB-ELASTIC =           0.0000     CSUB                             
      CSUB-INELASTIC =           0.0000        CSUB-INELASTIC =           0.0000     CSUB                             
      CSUB-WATERCOMP =           0.0000        CSUB-WATERCOMP =           0.0000     CSUB                             
                 CHD =           0.2726                   CHD =       1.2119E-02     CHD_0                            

           TOTAL OUT =           0.2726             TOTAL OUT =       1.2119E-02

            IN - OUT =       6.7194E-09              IN - OUT =       6.7693E-10

 PERCENT DISCREPANCY =           0.00     PERCENT DISCREPANCY =           0.00




         TIME SUMMARY AT END OF TIME STEP   19 IN STRESS PERIOD    1
                    SECONDS     MINUTES      HOURS       DAYS        YEARS
                    -----------------------------------------------------------
   TIME STEP LENGTH  79667.      1327.8      22.130     0.92207     2.52448E-03
 STRESS PERIOD TIME 1.01094E+06  16849.      280.82      11.701     3.20346E-02
         TOTAL TIME 1.01094E+06  16849.      280.82      11.701     3.20346E-02


end timestep


start timestep kper="1" kstp="20" mode="normal"



  VOLUME BUDGET FOR ENTIRE MODEL AT END OF TIME STEP   20, STRESS PERIOD   1
  ---------------------------------------------------------------------------------------------------

     CUMULATIVE VOLUME      L**3       RATES FOR THIS TIME STEP      L**3/T          PACKAGE NAME    
     ------------------                 ------------------------                     ----------------

           IN:                                      IN:
           ---                                      ---
              STO-SS =           0.0000                STO-SS =           0.0000     STORAGE                          
      CSUB-CGELASTIC =           0.0000        CSUB-CGELASTIC =           0.0000     CSUB                             
        CSUB-ELASTIC =       7.6899E-02          CSUB-ELASTIC =       2.5234E-03     CSUB                             
      CSUB-INELASTIC =           0.2069        CSUB-INELASTIC =       9.1008E-03     CSUB                             
      CSUB-WATERCOMP =           0.0000        CSUB-WATERCOMP =           0.0000     CSUB                             
                 CHD =           0.0000                   CHD =           0.0000     CHD_0                            

            TOTAL IN =           0.2838              TOTAL IN =       1.1624E-02

          OUT:                                     OUT:
          ----                                     ----
              STO-SS =           0.0000                STO-SS =           0.0000     STORAGE                          
      CSUB-CGELASTIC =           0.0000        CSUB-CGELASTIC =           0.0000     CSUB                             
        CSUB-ELASTIC =           0.0000          CSUB-ELASTIC =           0.0000     CSUB                             
      CSUB-INELASTIC =           0.0000        CSUB-INELASTIC =           0.0000     CSUB                             
      CSUB-WATERCOMP =           0.0000        CSUB-WATERCOMP =           0.0000     CSUB                             
                 CHD =           0.2838                   CHD =       1.1624E-02     CHD_0                            

           TOTAL OUT =           0.2838             TOTAL OUT =       1.1624E-02

            IN - OUT =       1.1163E-08              IN - OUT =       4.5893E-09

 PERCENT DISCREPANCY =           0.00     PERCENT DISCREPANCY =           0.00




         TIME SUMMARY AT END OF TIME STEP   20 IN STRESS PERIOD    1
                    SECONDS     MINUTES      HOURS       DAYS        YEARS
                    -----------------------------------------------------------
   TIME STEP LENGTH  83650.      1394.2      23.236     0.96817     2.65071E-03
 STRESS PERIOD TIME 1.09459E+06  18243.      304.05      12.669     3.46854E-02
         TOTAL TIME 1.09459E+06  18243.      304.05      12.669     3.46854E-02


end timestep


start timestep kper="1" kstp="21" mode="normal"



  VOLUME BUDGET FOR ENTIRE MODEL AT END OF TIME STEP   21, STRESS PERIOD   1
  ---------------------------------------------------------------------------------------------------

     CUMULATIVE VOLUME      L**3       RATES FOR THIS TIME STEP      L**3/T          PACKAGE NAME    
     ------------------                 ------------------------                     ----------------

           IN:                                      IN:
           ---                                      ---
              STO-SS =           0.0000                STO-SS =           0.0000     STORAGE                          
      CSUB-CGELASTIC =           0.0000        CSUB-CGELASTIC =           0.0000     CSUB                             
        CSUB-ELASTIC =       7.9234E-02          CSUB-ELASTIC =       2.2968E-03     CSUB                             
      CSUB-INELASTIC =           0.2160        CSUB-INELASTIC =       8.8654E-03     CSUB                             
      CSUB-WATERCOMP =           0.0000        CSUB-WATERCOMP =           0.0000     CSUB                             
                 CHD =           0.0000                   CHD =           0.0000     CHD_0                            

            TOTAL IN =           0.2952              TOTAL IN =       1.1162E-02

          OUT:                                     OUT:
          ----                                     ----
              STO-SS =           0.0000                STO-SS =           0.0000     STORAGE                          
      CSUB-CGELASTIC =           0.0000        CSUB-CGELASTIC =           0.0000     CSUB                             
        CSUB-ELASTIC =           0.0000          CSUB-ELASTIC =           0.0000     CSUB                             
      CSUB-INELASTIC =           0.0000        CSUB-INELASTIC =           0.0000     CSUB                             
      CSUB-WATERCOMP =           0.0000        CSUB-WATERCOMP =           0.0000     CSUB                             
                 CHD =           0.2952                   CHD =       1.1162E-02     CHD_0                            

           TOTAL OUT =           0.2952             TOTAL OUT =       1.1162E-02

            IN - OUT =       1.2131E-08              IN - OUT =       9.5306E-10

 PERCENT DISCREPANCY =           0.00     PERCENT DISCREPANCY =           0.00




         TIME SUMMARY AT END OF TIME STEP   21 IN STRESS PERIOD    1
                    SECONDS     MINUTES      HOURS       DAYS        YEARS
                    -----------------------------------------------------------
   TIME STEP LENGTH  87832.      1463.9      24.398      1.0166     2.78324E-03
 STRESS PERIOD TIME 1.18242E+06  19707.      328.45      13.685     3.74686E-02
         TOTAL TIME 1.18242E+06  19707.      328.45      13.685     3.74686E-02


end timestep


start timestep kper="1" kstp="22" mode="normal"



  VOLUME BUDGET FOR ENTIRE MODEL AT END OF TIME STEP   22, STRESS PERIOD   1
  ---------------------------------------------------------------------------------------------------

     CUMULATIVE VOLUME      L**3       RATES FOR THIS TIME STEP      L**3/T          PACKAGE NAME    
     ------------------                 ------------------------                     ----------------

           IN:                                      IN:
           ---                                      ---
              STO-SS =           0.0000                STO-SS =           0.0000     STORAGE                          
      CSUB-CGELASTIC =           0.0000        CSUB-CGELASTIC =           0.0000     CSUB                             
        CSUB-ELASTIC =       8.1454E-02          CSUB-ELASTIC =       2.0793E-03     CSUB                             
      CSUB-INELASTIC =           0.2252        CSUB-INELASTIC =       8.6499E-03     CSUB                             
      CSUB-WATERCOMP =           0.0000        CSUB-WATERCOMP =           0.0000     CSUB                             
                 CHD =           0.0000                   CHD =           0.0000     CHD_0                            

            TOTAL IN =           0.3066              TOTAL IN =       1.0729E-02

          OUT:                                     OUT:
          ----                                     ----
              STO-SS =           0.0000                STO-SS =           0.0000     STORAGE                          
      CSUB-CGELASTIC =           0.0000        CSUB-CGELASTIC =           0.0000     CSUB                             
        CSUB-ELASTIC =           0.0000          CSUB-ELASTIC =           0.0000     CSUB                             
      CSUB-INELASTIC =           0.0000        CSUB-INELASTIC =           0.0000     CSUB                             
      CSUB-WATERCOMP =           0.0000        CSUB-WATERCOMP =           0.0000     CSUB                             
                 CHD =           0.3066                   CHD =       1.0729E-02     CHD_0                            

           TOTAL OUT =           0.3066             TOTAL OUT =       1.0729E-02

            IN - OUT =       1.5205E-08              IN - OUT =       2.8793E-09

 PERCENT DISCREPANCY =           0.00     PERCENT DISCREPANCY =           0.00




         TIME SUMMARY AT END OF TIME STEP   22 IN STRESS PERIOD    1
                    SECONDS     MINUTES      HOURS       DAYS        YEARS
                    -----------------------------------------------------------
   TIME STEP LENGTH  92224.      1537.1      25.618      1.0674     2.92240E-03
 STRESS PERIOD TIME 1.27464E+06  21244.      354.07      14.753     4.03910E-02
         TOTAL TIME 1.27464E+06  21244.      354.07      14.753     4.03910E-02


end timestep


start timestep kper="1" kstp="23" mode="normal"



  VOLUME BUDGET FOR ENTIRE MODEL AT END OF TIME STEP   23, STRESS PERIOD   1
  ---------------------------------------------------------------------------------------------------

     CUMULATIVE VOLUME      L**3       RATES FOR THIS TIME STEP      L**3/T          PACKAGE NAME    
     ------------------                 ------------------------                     ----------------

           IN:                                      IN:
           ---                                      ---
              STO-SS =           0.0000                STO-SS =           0.0000     STORAGE                          
      CSUB-CGELASTIC =           0.0000        CSUB-CGELASTIC =           0.0000     CSUB                             
        CSUB-ELASTIC =       8.3551E-02          CSUB-ELASTIC =       1.8717E-03     CSUB                             
      CSUB-INELASTIC =           0.2347        CSUB-INELASTIC =       8.4505E-03     CSUB                             
      CSUB-WATERCOMP =           0.0000        CSUB-WATERCOMP =           0.0000     CSUB                             
                 CHD =           0.0000                   CHD =           0.0000     CHD_0                            

            TOTAL IN =           0.3182              TOTAL IN =       1.0322E-02

          OUT:                                     OUT:
          ----                                     ----
              STO-SS =           0.0000                STO-SS =           0.0000     STORAGE                          
      CSUB-CGELASTIC =           0.0000        CSUB-CGELASTIC =           0.0000     CSUB                             
        CSUB-ELASTIC =           0.0000          CSUB-ELASTIC =           0.0000     CSUB                             
      CSUB-INELASTIC =           0.0000        CSUB-INELASTIC =           0.0000     CSUB                             
      CSUB-WATERCOMP =           0.0000        CSUB-WATERCOMP =           0.0000     CSUB                             
                 CHD =           0.3182                   CHD =       1.0322E-02     CHD_0                            

           TOTAL OUT =           0.3182             TOTAL OUT =       1.0322E-02

            IN - OUT =       1.8973E-08              IN - OUT =       3.3617E-09

 PERCENT DISCREPANCY =           0.00     PERCENT DISCREPANCY =           0.00




         TIME SUMMARY AT END OF TIME STEP   23 IN STRESS PERIOD    1
                    SECONDS     MINUTES      HOURS       DAYS        YEARS
                    -----------------------------------------------------------
   TIME STEP LENGTH  96835.      1613.9      26.899      1.1208     3.06852E-03
 STRESS PERIOD TIME 1.37148E+06  22858.      380.97      15.874     4.34595E-02
         TOTAL TIME 1.37148E+06  22858.      380.97      15.874     4.34595E-02


end timestep


start timestep kper="1" kstp="24" mode="normal"



  VOLUME BUDGET FOR ENTIRE MODEL AT END OF TIME STEP   24, STRESS PERIOD   1
  ---------------------------------------------------------------------------------------------------

     CUMULATIVE VOLUME      L**3       RATES FOR THIS TIME STEP      L**3/T          PACKAGE NAME    
     ------------------                 ------------------------                     ----------------

           IN:                                      IN:
           ---                                      ---
              STO-SS =           0.0000                STO-SS =           0.0000     STORAGE                          
      CSUB-CGELASTIC =           0.0000        CSUB-CGELASTIC =           0.0000     CSUB                             
        CSUB-ELASTIC =       8.5522E-02          CSUB-ELASTIC =       1.6744E-03     CSUB                             
      CSUB-INELASTIC =           0.2444        CSUB-INELASTIC =       8.2640E-03     CSUB                             
      CSUB-WATERCOMP =           0.0000        CSUB-WATERCOMP =           0.0000     CSUB                             
                 CHD =           0.0000                   CHD =           0.0000     CHD_0                            

            TOTAL IN =           0.3299              TOTAL IN =       9.9384E-03

          OUT:                                     OUT:
          ----                                     ----
              STO-SS =           0.0000                STO-SS =           0.0000     STORAGE                          
      CSUB-CGELASTIC =           0.0000        CSUB-CGELASTIC =           0.0000     CSUB                             
        CSUB-ELASTIC =           0.0000          CSUB-ELASTIC =           0.0000     CSUB                             
      CSUB-INELASTIC =           0.0000        CSUB-INELASTIC =           0.0000     CSUB                             
      CSUB-WATERCOMP =           0.0000        CSUB-WATERCOMP =           0.0000     CSUB                             
                 CHD =           0.3299                   CHD =       9.9384E-03     CHD_0                            

           TOTAL OUT =           0.3299             TOTAL OUT =       9.9384E-03

            IN - OUT =       2.1457E-08              IN - OUT =       2.1112E-09

 PERCENT DISCREPANCY =           0.00     PERCENT DISCREPANCY =           0.00




         TIME SUMMARY AT END OF TIME STEP   24 IN STRESS PERIOD    1
                    SECONDS     MINUTES      HOURS       DAYS        YEARS
                    -----------------------------------------------------------
   TIME STEP LENGTH 1.01677E+05  1694.6      28.244      1.1768     3.22195E-03
 STRESS PERIOD TIME 1.47316E+06  24553.      409.21      17.050     4.66815E-02
         TOTAL TIME 1.47316E+06  24553.      409.21      17.050     4.66815E-02


end timestep


start timestep kper="1" kstp="25" mode="normal"



  VOLUME BUDGET FOR ENTIRE MODEL AT END OF TIME STEP   25, STRESS PERIOD   1
  ---------------------------------------------------------------------------------------------------

     CUMULATIVE VOLUME      L**3       RATES FOR THIS TIME STEP      L**3/T          PACKAGE NAME    
     ------------------                 ------------------------                     ----------------

           IN:                                      IN:
           ---                                      ---
              STO-SS =           0.0000                STO-SS =           0.0000     STORAGE                          
      CSUB-CGELASTIC =           0.0000        CSUB-CGELASTIC =           0.0000     CSUB                             
        CSUB-ELASTIC =       8.7361E-02          CSUB-ELASTIC =       1.4883E-03     CSUB                             
      CSUB-INELASTIC =           0.2544        CSUB-INELASTIC =       8.0873E-03     CSUB                             
      CSUB-WATERCOMP =           0.0000        CSUB-WATERCOMP =           0.0000     CSUB                             
                 CHD =           0.0000                   CHD =           0.0000     CHD_0                            

            TOTAL IN =           0.3417              TOTAL IN =       9.5756E-03

          OUT:                                     OUT:
          ----                                     ----
              STO-SS =           0.0000                STO-SS =           0.0000     STORAGE                          
      CSUB-CGELASTIC =           0.0000        CSUB-CGELASTIC =           0.0000     CSUB                             
        CSUB-ELASTIC =           0.0000          CSUB-ELASTIC =           0.0000     CSUB                             
      CSUB-INELASTIC =           0.0000        CSUB-INELASTIC =           0.0000     CSUB                             
      CSUB-WATERCOMP =           0.0000        CSUB-WATERCOMP =           0.0000     CSUB                             
                 CHD =           0.3417                   CHD =       9.5756E-03     CHD_0                            

           TOTAL OUT =           0.3417             TOTAL OUT =       9.5756E-03

            IN - OUT =       2.5376E-08              IN - OUT =       3.1716E-09

 PERCENT DISCREPANCY =           0.00     PERCENT DISCREPANCY =           0.00




         TIME SUMMARY AT END OF TIME STEP   25 IN STRESS PERIOD    1
                    SECONDS     MINUTES      HOURS       DAYS        YEARS
                    -----------------------------------------------------------
   TIME STEP LENGTH 1.06761E+05  1779.3      29.656      1.2357     3.38305E-03
 STRESS PERIOD TIME 1.57992E+06  26332.      438.87      18.286     5.00645E-02
         TOTAL TIME 1.57992E+06  26332.      438.87      18.286     5.00645E-02


end timestep


start timestep kper="1" kstp="26" mode="normal"



  VOLUME BUDGET FOR ENTIRE MODEL AT END OF TIME STEP   26, STRESS PERIOD   1
  ---------------------------------------------------------------------------------------------------

     CUMULATIVE VOLUME      L**3       RATES FOR THIS TIME STEP      L**3/T          PACKAGE NAME    
     ------------------                 ------------------------                     ----------------

           IN:                                      IN:
           ---                                      ---
              STO-SS =           0.0000                STO-SS =           0.0000     STORAGE                          
      CSUB-CGELASTIC =           0.0000        CSUB-CGELASTIC =           0.0000     CSUB                             
        CSUB-ELASTIC =       8.9064E-02          CSUB-ELASTIC =       1.3130E-03     CSUB                             
      CSUB-INELASTIC =           0.2647        CSUB-INELASTIC =       7.9189E-03     CSUB                             
      CSUB-WATERCOMP =           0.0000        CSUB-WATERCOMP =           0.0000     CSUB                             
                 CHD =           0.0000                   CHD =           0.0000     CHD_0                            

            TOTAL IN =           0.3537              TOTAL IN =       9.2319E-03

          OUT:                                     OUT:
          ----                                     ----
              STO-SS =           0.0000                STO-SS =           0.0000     STORAGE                          
      CSUB-CGELASTIC =           0.0000        CSUB-CGELASTIC =           0.0000     CSUB                             
        CSUB-ELASTIC =           0.0000          CSUB-ELASTIC =           0.0000     CSUB                             
      CSUB-INELASTIC =           0.0000        CSUB-INELASTIC =           0.0000     CSUB                             
      CSUB-WATERCOMP =           0.0000        CSUB-WATERCOMP =           0.0000     CSUB                             
                 CHD =           0.3537                   CHD =       9.2319E-03     CHD_0                            

           TOTAL OUT =           0.3537             TOTAL OUT =       9.2319E-03

            IN - OUT =       3.0077E-08              IN - OUT =       3.6229E-09

 PERCENT DISCREPANCY =           0.00     PERCENT DISCREPANCY =           0.00




         TIME SUMMARY AT END OF TIME STEP   26 IN STRESS PERIOD    1
                    SECONDS     MINUTES      HOURS       DAYS        YEARS
                    -----------------------------------------------------------
   TIME STEP LENGTH 1.12099E+05  1868.3      31.139      1.2974     3.55220E-03
 STRESS PERIOD TIME 1.69202E+06  28200.      470.00      19.584     5.36167E-02
         TOTAL TIME 1.69202E+06  28200.      470.00      19.584     5.36167E-02


end timestep


start timestep kper="1" kstp="27" mode="normal"



  VOLUME BUDGET FOR ENTIRE MODEL AT END OF TIME STEP   27, STRESS PERIOD   1
  ---------------------------------------------------------------------------------------------------

     CUMULATIVE VOLUME      L**3       RATES FOR THIS TIME STEP      L**3/T          PACKAGE NAME    
     ------------------                 ------------------------                     ----------------

           IN:                                      IN:
           ---                                      ---
              STO-SS =           0.0000                STO-SS =           0.0000     STORAGE                          
      CSUB-CGELASTIC =           0.0000        CSUB-CGELASTIC =           0.0000     CSUB                             
        CSUB-ELASTIC =       9.0631E-02          CSUB-ELASTIC =       1.1504E-03     CSUB                             
      CSUB-INELASTIC =           0.2752        CSUB-INELASTIC =       7.7552E-03     CSUB                             
      CSUB-WATERCOMP =           0.0000        CSUB-WATERCOMP =           0.0000     CSUB                             
                 CHD =           0.0000                   CHD =           0.0000     CHD_0                            

            TOTAL IN =           0.3659              TOTAL IN =       8.9055E-03

          OUT:                                     OUT:
          ----                                     ----
              STO-SS =           0.0000                STO-SS =           0.0000     STORAGE                          
      CSUB-CGELASTIC =           0.0000        CSUB-CGELASTIC =           0.0000     CSUB                             
        CSUB-ELASTIC =           0.0000          CSUB-ELASTIC =           0.0000     CSUB                             
      CSUB-INELASTIC =           0.0000        CSUB-INELASTIC =           0.0000     CSUB                             
      CSUB-WATERCOMP =           0.0000        CSUB-WATERCOMP =           0.0000     CSUB                             
                 CHD =           0.3659                   CHD =       8.9055E-03     CHD_0                            

           TOTAL OUT =           0.3659             TOTAL OUT =       8.9055E-03

            IN - OUT =       3.5314E-08              IN - OUT =       3.8445E-09

 PERCENT DISCREPANCY =           0.00     PERCENT DISCREPANCY =           0.00




         TIME SUMMARY AT END OF TIME STEP   27 IN STRESS PERIOD    1
                    SECONDS     MINUTES      HOURS       DAYS        YEARS
                    -----------------------------------------------------------
   TIME STEP LENGTH 1.17704E+05  1961.7      32.696      1.3623     3.72981E-03
 STRESS PERIOD TIME 1.80972E+06  30162.      502.70      20.946     5.73465E-02
         TOTAL TIME 1.80972E+06  30162.      502.70      20.946     5.73465E-02


end timestep


start timestep kper="1" kstp="28" mode="normal"



  VOLUME BUDGET FOR ENTIRE MODEL AT END OF TIME STEP   28, STRESS PERIOD   1
  ---------------------------------------------------------------------------------------------------

     CUMULATIVE VOLUME      L**3       RATES FOR THIS TIME STEP      L**3/T          PACKAGE NAME    
     ------------------                 ------------------------                     ----------------

           IN:                                      IN:
           ---                                      ---
              STO-SS =           0.0000                STO-SS =           0.0000     STORAGE                          
      CSUB-CGELASTIC =           0.0000        CSUB-CGELASTIC =           0.0000     CSUB                             
        CSUB-ELASTIC =       9.2062E-02          CSUB-ELASTIC =       1.0000E-03     CSUB                             
      CSUB-INELASTIC =           0.2861        CSUB-INELASTIC =       7.5951E-03     CSUB                             
      CSUB-WATERCOMP =           0.0000        CSUB-WATERCOMP =           0.0000     CSUB                             
                 CHD =           0.0000                   CHD =           0.0000     CHD_0                            

            TOTAL IN =           0.3781              TOTAL IN =       8.5951E-03

          OUT:                                     OUT:
          ----                                     ----
              STO-SS =           0.0000                STO-SS =           0.0000     STORAGE                          
      CSUB-CGELASTIC =           0.0000        CSUB-CGELASTIC =           0.0000     CSUB                             
        CSUB-ELASTIC =           0.0000          CSUB-ELASTIC =           0.0000     CSUB                             
      CSUB-INELASTIC =           0.0000        CSUB-INELASTIC =           0.0000     CSUB                             
      CSUB-WATERCOMP =           0.0000        CSUB-WATERCOMP =           0.0000     CSUB                             
                 CHD =           0.3781                   CHD =       8.5951E-03     CHD_0                            

           TOTAL OUT =           0.3781             TOTAL OUT =       8.5951E-03

            IN - OUT =       4.0888E-08              IN - OUT =       3.8967E-09

 PERCENT DISCREPANCY =           0.00     PERCENT DISCREPANCY =           0.00




         TIME SUMMARY AT END OF TIME STEP   28 IN STRESS PERIOD    1
                    SECONDS     MINUTES      HOURS       DAYS        YEARS
                    -----------------------------------------------------------
   TIME STEP LENGTH 1.23589E+05  2059.8      34.330      1.4304     3.91630E-03
 STRESS PERIOD TIME 1.93331E+06  32222.      537.03      22.376     6.12628E-02
         TOTAL TIME 1.93331E+06  32222.      537.03      22.376     6.12628E-02


end timestep


start timestep kper="1" kstp="29" mode="normal"



  VOLUME BUDGET FOR ENTIRE MODEL AT END OF TIME STEP   29, STRESS PERIOD   1
  ---------------------------------------------------------------------------------------------------

     CUMULATIVE VOLUME      L**3       RATES FOR THIS TIME STEP      L**3/T          PACKAGE NAME    
     ------------------                 ------------------------                     ----------------

           IN:                                      IN:
           ---                                      ---
              STO-SS =           0.0000                STO-SS =           0.0000     STORAGE                          
      CSUB-CGELASTIC =           0.0000        CSUB-CGELASTIC =           0.0000     CSUB                             
        CSUB-ELASTIC =       9.3357E-02          CSUB-ELASTIC =       8.6205E-04     CSUB                             
      CSUB-INELASTIC =           0.2973        CSUB-INELASTIC =       7.4375E-03     CSUB                             
      CSUB-WATERCOMP =           0.0000        CSUB-WATERCOMP =           0.0000     CSUB                             
                 CHD =           0.0000                   CHD =           0.0000     CHD_0                            

            TOTAL IN =           0.3906              TOTAL IN =       8.2995E-03

          OUT:                                     OUT:
          ----                                     ----
              STO-SS =           0.0000                STO-SS =           0.0000     STORAGE                          
      CSUB-CGELASTIC =           0.0000        CSUB-CGELASTIC =           0.0000     CSUB                             
        CSUB-ELASTIC =           0.0000          CSUB-ELASTIC =           0.0000     CSUB                             
      CSUB-INELASTIC =           0.0000        CSUB-INELASTIC =           0.0000     CSUB                             
      CSUB-WATERCOMP =           0.0000        CSUB-WATERCOMP =           0.0000     CSUB                             
                 CHD =           0.3906                   CHD =       8.2995E-03     CHD_0                            

           TOTAL OUT =           0.3906             TOTAL OUT =       8.2995E-03

            IN - OUT =       4.6689E-08              IN - OUT =       3.8620E-09

 PERCENT DISCREPANCY =           0.00     PERCENT DISCREPANCY =           0.00




         TIME SUMMARY AT END OF TIME STEP   29 IN STRESS PERIOD    1
                    SECONDS     MINUTES      HOURS       DAYS        YEARS
                    -----------------------------------------------------------
   TIME STEP LENGTH 1.29769E+05  2162.8      36.047      1.5020     4.11212E-03
 STRESS PERIOD TIME 2.06308E+06  34385.      573.08      23.878     6.53750E-02
         TOTAL TIME 2.06308E+06  34385.      573.08      23.878     6.53750E-02


end timestep


start timestep kper="1" kstp="30" mode="normal"



  VOLUME BUDGET FOR ENTIRE MODEL AT END OF TIME STEP   30, STRESS PERIOD   1
  ---------------------------------------------------------------------------------------------------

     CUMULATIVE VOLUME      L**3       RATES FOR THIS TIME STEP      L**3/T          PACKAGE NAME    
     ------------------                 ------------------------                     ----------------

           IN:                                      IN:
           ---                                      ---
              STO-SS =           0.0000                STO-SS =           0.0000     STORAGE                          
      CSUB-CGELASTIC =           0.0000        CSUB-CGELASTIC =           0.0000     CSUB                             
        CSUB-ELASTIC =       9.4519E-02          CSUB-ELASTIC =       7.3672E-04     CSUB                             
      CSUB-INELASTIC =           0.3087        CSUB-INELASTIC =       7.2808E-03     CSUB                             
      CSUB-WATERCOMP =           0.0000        CSUB-WATERCOMP =           0.0000     CSUB                             
                 CHD =           0.0000                   CHD =           0.0000     CHD_0                            

            TOTAL IN =           0.4033              TOTAL IN =       8.0175E-03

          OUT:                                     OUT:
          ----                                     ----
              STO-SS =           0.0000                STO-SS =           0.0000     STORAGE                          
      CSUB-CGELASTIC =           0.0000        CSUB-CGELASTIC =           0.0000     CSUB                             
        CSUB-ELASTIC =           0.0000          CSUB-ELASTIC =           0.0000     CSUB                             
      CSUB-INELASTIC =           0.0000        CSUB-INELASTIC =           0.0000     CSUB                             
      CSUB-WATERCOMP =           0.0000        CSUB-WATERCOMP =           0.0000     CSUB                             
                 CHD =           0.4033                   CHD =       8.0175E-03     CHD_0                            

           TOTAL OUT =           0.4033             TOTAL OUT =       8.0175E-03

            IN - OUT =       5.2384E-08              IN - OUT =       3.6114E-09

 PERCENT DISCREPANCY =           0.00     PERCENT DISCREPANCY =           0.00




         TIME SUMMARY AT END OF TIME STEP   30 IN STRESS PERIOD    1
                    SECONDS     MINUTES      HOURS       DAYS        YEARS
                    -----------------------------------------------------------
   TIME STEP LENGTH 1.36257E+05  2270.9      37.849      1.5770     4.31772E-03
 STRESS PERIOD TIME 2.19933E+06  36656.      610.93      25.455     6.96927E-02
         TOTAL TIME 2.19933E+06  36656.      610.93      25.455     6.96927E-02


end timestep


start timestep kper="1" kstp="31" mode="normal"



  VOLUME BUDGET FOR ENTIRE MODEL AT END OF TIME STEP   31, STRESS PERIOD   1
  ---------------------------------------------------------------------------------------------------

     CUMULATIVE VOLUME      L**3       RATES FOR THIS TIME STEP      L**3/T          PACKAGE NAME    
     ------------------                 ------------------------                     ----------------

           IN:                                      IN:
           ---                                      ---
              STO-SS =           0.0000                STO-SS =           0.0000     STORAGE                          
      CSUB-CGELASTIC =           0.0000        CSUB-CGELASTIC =           0.0000     CSUB                             
        CSUB-ELASTIC =       9.5551E-02          CSUB-ELASTIC =       6.2380E-04     CSUB                             
      CSUB-INELASTIC =           0.3205        CSUB-INELASTIC =       7.1245E-03     CSUB                             
      CSUB-WATERCOMP =           0.0000        CSUB-WATERCOMP =           0.0000     CSUB                             
                 CHD =           0.0000                   CHD =           0.0000     CHD_0                            

            TOTAL IN =           0.4161              TOTAL IN =       7.7483E-03

          OUT:                                     OUT:
          ----                                     ----
              STO-SS =           0.0000                STO-SS =           0.0000     STORAGE                          
      CSUB-CGELASTIC =           0.0000        CSUB-CGELASTIC =           0.0000     CSUB                             
        CSUB-ELASTIC =           0.0000          CSUB-ELASTIC =           0.0000     CSUB                             
      CSUB-INELASTIC =           0.0000        CSUB-INELASTIC =           0.0000     CSUB                             
      CSUB-WATERCOMP =           0.0000        CSUB-WATERCOMP =           0.0000     CSUB                             
                 CHD =           0.4161                   CHD =       7.7483E-03     CHD_0                            

           TOTAL OUT =           0.4161             TOTAL OUT =       7.7483E-03

            IN - OUT =       5.7444E-08              IN - OUT =       3.0559E-09

 PERCENT DISCREPANCY =           0.00     PERCENT DISCREPANCY =           0.00




         TIME SUMMARY AT END OF TIME STEP   31 IN STRESS PERIOD    1
                    SECONDS     MINUTES      HOURS       DAYS        YEARS
                    -----------------------------------------------------------
   TIME STEP LENGTH 1.43070E+05  2384.5      39.742      1.6559     4.53361E-03
 STRESS PERIOD TIME 2.34240E+06  39040.      650.67      27.111     7.42263E-02
         TOTAL TIME 2.34240E+06  39040.      650.67      27.111     7.42263E-02


end timestep


start timestep kper="1" kstp="32" mode="normal"



  VOLUME BUDGET FOR ENTIRE MODEL AT END OF TIME STEP   32, STRESS PERIOD   1
  ---------------------------------------------------------------------------------------------------

     CUMULATIVE VOLUME      L**3       RATES FOR THIS TIME STEP      L**3/T          PACKAGE NAME    
     ------------------                 ------------------------                     ----------------

           IN:                                      IN:
           ---                                      ---
              STO-SS =           0.0000                STO-SS =           0.0000     STORAGE                          
      CSUB-CGELASTIC =           0.0000        CSUB-CGELASTIC =           0.0000     CSUB                             
        CSUB-ELASTIC =       9.6461E-02          CSUB-ELASTIC =       5.2303E-04     CSUB                             
      CSUB-INELASTIC =           0.3327        CSUB-INELASTIC =       6.9679E-03     CSUB                             
      CSUB-WATERCOMP =           0.0000        CSUB-WATERCOMP =           0.0000     CSUB                             
                 CHD =           0.0000                   CHD =           0.0000     CHD_0                            

            TOTAL IN =           0.4291              TOTAL IN =       7.4909E-03

          OUT:                                     OUT:
          ----                                     ----
              STO-SS =           0.0000                STO-SS =           0.0000     STORAGE                          
      CSUB-CGELASTIC =           0.0000        CSUB-CGELASTIC =           0.0000     CSUB                             
        CSUB-ELASTIC =           0.0000          CSUB-ELASTIC =           0.0000     CSUB                             
      CSUB-INELASTIC =           0.0000        CSUB-INELASTIC =           0.0000     CSUB                             
      CSUB-WATERCOMP =           0.0000        CSUB-WATERCOMP =           0.0000     CSUB                             
                 CHD =           0.4291                   CHD =       7.4909E-03     CHD_0                            

           TOTAL OUT =           0.4291             TOTAL OUT =       7.4909E-03

            IN - OUT =       6.1287E-08              IN - OUT =       2.2101E-09

 PERCENT DISCREPANCY =           0.00     PERCENT DISCREPANCY =           0.00




         TIME SUMMARY AT END OF TIME STEP   32 IN STRESS PERIOD    1
                    SECONDS     MINUTES      HOURS       DAYS        YEARS
                    -----------------------------------------------------------
   TIME STEP LENGTH 1.50223E+05  2503.7      41.729      1.7387     4.76029E-03
 STRESS PERIOD TIME 2.49263E+06  41544.      692.40      28.850     7.89866E-02
         TOTAL TIME 2.49263E+06  41544.      692.40      28.850     7.89866E-02


end timestep


start timestep kper="1" kstp="33" mode="normal"



  VOLUME BUDGET FOR ENTIRE MODEL AT END OF TIME STEP   33, STRESS PERIOD   1
  ---------------------------------------------------------------------------------------------------

     CUMULATIVE VOLUME      L**3       RATES FOR THIS TIME STEP      L**3/T          PACKAGE NAME    
     ------------------                 ------------------------                     ----------------

           IN:                                      IN:
           ---                                      ---
              STO-SS =           0.0000                STO-SS =           0.0000     STORAGE                          
      CSUB-CGELASTIC =           0.0000        CSUB-CGELASTIC =           0.0000     CSUB                             
        CSUB-ELASTIC =       9.7253E-02          CSUB-ELASTIC =       4.3394E-04     CSUB                             
      CSUB-INELASTIC =           0.3451        CSUB-INELASTIC =       6.8108E-03     CSUB                             
      CSUB-WATERCOMP =           0.0000        CSUB-WATERCOMP =           0.0000     CSUB                             
                 CHD =           0.0000                   CHD =           0.0000     CHD_0                            

            TOTAL IN =           0.4423              TOTAL IN =       7.2447E-03

          OUT:                                     OUT:
          ----                                     ----
              STO-SS =           0.0000                STO-SS =           0.0000     STORAGE                          
      CSUB-CGELASTIC =           0.0000        CSUB-CGELASTIC =           0.0000     CSUB                             
        CSUB-ELASTIC =           0.0000          CSUB-ELASTIC =           0.0000     CSUB                             
      CSUB-INELASTIC =           0.0000        CSUB-INELASTIC =           0.0000     CSUB                             
      CSUB-WATERCOMP =           0.0000        CSUB-WATERCOMP =           0.0000     CSUB                             
                 CHD =           0.4423                   CHD =       7.2447E-03     CHD_0                            

           TOTAL OUT =           0.4423             TOTAL OUT =       7.2447E-03

            IN - OUT =       6.3982E-08              IN - OUT =       1.4763E-09

 PERCENT DISCREPANCY =           0.00     PERCENT DISCREPANCY =           0.00




         TIME SUMMARY AT END OF TIME STEP   33 IN STRESS PERIOD    1
                    SECONDS     MINUTES      HOURS       DAYS        YEARS
                    -----------------------------------------------------------
   TIME STEP LENGTH 1.57734E+05  2628.9      43.815      1.8256     4.99830E-03
 STRESS PERIOD TIME 2.65036E+06  44173.      736.21      30.675     8.39849E-02
         TOTAL TIME 2.65036E+06  44173.      736.21      30.675     8.39849E-02


end timestep


start timestep kper="1" kstp="34" mode="normal"



  VOLUME BUDGET FOR ENTIRE MODEL AT END OF TIME STEP   34, STRESS PERIOD   1
  ---------------------------------------------------------------------------------------------------

     CUMULATIVE VOLUME      L**3       RATES FOR THIS TIME STEP      L**3/T          PACKAGE NAME    
     ------------------                 ------------------------                     ----------------

           IN:                                      IN:
           ---                                      ---
              STO-SS =           0.0000                STO-SS =           0.0000     STORAGE                          
      CSUB-CGELASTIC =           0.0000        CSUB-CGELASTIC =           0.0000     CSUB                             
        CSUB-ELASTIC =       9.7936E-02          CSUB-ELASTIC =       3.5611E-04     CSUB                             
      CSUB-INELASTIC =           0.3578        CSUB-INELASTIC =       6.6528E-03     CSUB                             
      CSUB-WATERCOMP =           0.0000        CSUB-WATERCOMP =           0.0000     CSUB                             
                 CHD =           0.0000                   CHD =           0.0000     CHD_0                            

            TOTAL IN =           0.4558              TOTAL IN =       7.0090E-03

          OUT:                                     OUT:
          ----                                     ----
              STO-SS =           0.0000                STO-SS =           0.0000     STORAGE                          
      CSUB-CGELASTIC =           0.0000        CSUB-CGELASTIC =           0.0000     CSUB                             
        CSUB-ELASTIC =           0.0000          CSUB-ELASTIC =           0.0000     CSUB                             
      CSUB-INELASTIC =           0.0000        CSUB-INELASTIC =           0.0000     CSUB                             
      CSUB-WATERCOMP =           0.0000        CSUB-WATERCOMP =           0.0000     CSUB                             
                 CHD =           0.4558                   CHD =       7.0090E-03     CHD_0                            

           TOTAL OUT =           0.4558             TOTAL OUT =       7.0090E-03

            IN - OUT =       6.5845E-08              IN - OUT =       9.7164E-10

 PERCENT DISCREPANCY =           0.00     PERCENT DISCREPANCY =           0.00




         TIME SUMMARY AT END OF TIME STEP   34 IN STRESS PERIOD    1
                    SECONDS     MINUTES      HOURS       DAYS        YEARS
                    -----------------------------------------------------------
   TIME STEP LENGTH 1.65621E+05  2760.4      46.006      1.9169     5.24822E-03
 STRESS PERIOD TIME 2.81598E+06  46933.      782.22      32.592     8.92331E-02
         TOTAL TIME 2.81598E+06  46933.      782.22      32.592     8.92331E-02


end timestep


start timestep kper="1" kstp="35" mode="normal"



  VOLUME BUDGET FOR ENTIRE MODEL AT END OF TIME STEP   35, STRESS PERIOD   1
  ---------------------------------------------------------------------------------------------------

     CUMULATIVE VOLUME      L**3       RATES FOR THIS TIME STEP      L**3/T          PACKAGE NAME    
     ------------------                 ------------------------                     ----------------

           IN:                                      IN:
           ---                                      ---
              STO-SS =           0.0000                STO-SS =           0.0000     STORAGE                          
      CSUB-CGELASTIC =           0.0000        CSUB-CGELASTIC =           0.0000     CSUB                             
        CSUB-ELASTIC =       9.8517E-02          CSUB-ELASTIC =       2.8878E-04     CSUB                             
      CSUB-INELASTIC =           0.3709        CSUB-INELASTIC =       6.4943E-03     CSUB                             
      CSUB-WATERCOMP =           0.0000        CSUB-WATERCOMP =           0.0000     CSUB                             
                 CHD =           0.0000                   CHD =           0.0000     CHD_0                            

            TOTAL IN =           0.4694              TOTAL IN =       6.7831E-03

          OUT:                                     OUT:
          ----                                     ----
              STO-SS =           0.0000                STO-SS =           0.0000     STORAGE                          
      CSUB-CGELASTIC =           0.0000        CSUB-CGELASTIC =           0.0000     CSUB                             
        CSUB-ELASTIC =           0.0000          CSUB-ELASTIC =           0.0000     CSUB                             
      CSUB-INELASTIC =           0.0000        CSUB-INELASTIC =           0.0000     CSUB                             
      CSUB-WATERCOMP =           0.0000        CSUB-WATERCOMP =           0.0000     CSUB                             
                 CHD =           0.4694                   CHD =       6.7831E-03     CHD_0                            

           TOTAL OUT =           0.4694             TOTAL OUT =       6.7831E-03

            IN - OUT =       6.7157E-08              IN - OUT =       6.5202E-10

 PERCENT DISCREPANCY =           0.00     PERCENT DISCREPANCY =           0.00




         TIME SUMMARY AT END OF TIME STEP   35 IN STRESS PERIOD    1
                    SECONDS     MINUTES      HOURS       DAYS        YEARS
                    -----------------------------------------------------------
   TIME STEP LENGTH 1.73902E+05  2898.4      48.306      2.0128     5.51063E-03
 STRESS PERIOD TIME 2.98988E+06  49831.      830.52      34.605     9.47437E-02
         TOTAL TIME 2.98988E+06  49831.      830.52      34.605     9.47437E-02


end timestep


start timestep kper="1" kstp="36" mode="normal"



  VOLUME BUDGET FOR ENTIRE MODEL AT END OF TIME STEP   36, STRESS PERIOD   1
  ---------------------------------------------------------------------------------------------------

     CUMULATIVE VOLUME      L**3       RATES FOR THIS TIME STEP      L**3/T          PACKAGE NAME    
     ------------------                 ------------------------                     ----------------

           IN:                                      IN:
           ---                                      ---
              STO-SS =           0.0000                STO-SS =           0.0000     STORAGE                          
      CSUB-CGELASTIC =           0.0000        CSUB-CGELASTIC =           0.0000     CSUB                             
        CSUB-ELASTIC =       9.9006E-02          CSUB-ELASTIC =       2.3130E-04     CSUB                             
      CSUB-INELASTIC =           0.3843        CSUB-INELASTIC =       6.3352E-03     CSUB                             
      CSUB-WATERCOMP =           0.0000        CSUB-WATERCOMP =           0.0000     CSUB                             
                 CHD =           0.0000                   CHD =           0.0000     CHD_0                            

            TOTAL IN =           0.4833              TOTAL IN =       6.5665E-03

          OUT:                                     OUT:
          ----                                     ----
              STO-SS =           0.0000                STO-SS =           0.0000     STORAGE                          
      CSUB-CGELASTIC =           0.0000        CSUB-CGELASTIC =           0.0000     CSUB                             
        CSUB-ELASTIC =           0.0000          CSUB-ELASTIC =           0.0000     CSUB                             
      CSUB-INELASTIC =           0.0000        CSUB-INELASTIC =           0.0000     CSUB                             
      CSUB-WATERCOMP =           0.0000        CSUB-WATERCOMP =           0.0000     CSUB                             
                 CHD =           0.4833                   CHD =       6.5665E-03     CHD_0                            

           TOTAL OUT =           0.4833             TOTAL OUT =       6.5665E-03

            IN - OUT =       6.8141E-08              IN - OUT =       4.6577E-10

 PERCENT DISCREPANCY =           0.00     PERCENT DISCREPANCY =           0.00




         TIME SUMMARY AT END OF TIME STEP   36 IN STRESS PERIOD    1
                    SECONDS     MINUTES      HOURS       DAYS        YEARS
                    -----------------------------------------------------------
   TIME STEP LENGTH 1.82597E+05  3043.3      50.721      2.1134     5.78616E-03
 STRESS PERIOD TIME 3.17248E+06  52875.      881.25      36.719     0.10053    
         TOTAL TIME 3.17248E+06  52875.      881.25      36.719     0.10053    


end timestep


start timestep kper="1" kstp="37" mode="normal"



  VOLUME BUDGET FOR ENTIRE MODEL AT END OF TIME STEP   37, STRESS PERIOD   1
  ---------------------------------------------------------------------------------------------------

     CUMULATIVE VOLUME      L**3       RATES FOR THIS TIME STEP      L**3/T          PACKAGE NAME    
     ------------------                 ------------------------                     ----------------

           IN:                                      IN:
           ---                                      ---
              STO-SS =           0.0000                STO-SS =           0.0000     STORAGE                          
      CSUB-CGELASTIC =           0.0000        CSUB-CGELASTIC =           0.0000     CSUB                             
        CSUB-ELASTIC =       9.9411E-02          CSUB-ELASTIC =       1.8274E-04     CSUB                             
      CSUB-INELASTIC =           0.3980        CSUB-INELASTIC =       6.1759E-03     CSUB                             
      CSUB-WATERCOMP =           0.0000        CSUB-WATERCOMP =           0.0000     CSUB                             
                 CHD =           0.0000                   CHD =           0.0000     CHD_0                            

            TOTAL IN =           0.4974              TOTAL IN =       6.3587E-03

          OUT:                                     OUT:
          ----                                     ----
              STO-SS =           0.0000                STO-SS =           0.0000     STORAGE                          
      CSUB-CGELASTIC =           0.0000        CSUB-CGELASTIC =           0.0000     CSUB                             
        CSUB-ELASTIC =           0.0000          CSUB-ELASTIC =           0.0000     CSUB                             
      CSUB-INELASTIC =           0.0000        CSUB-INELASTIC =           0.0000     CSUB                             
      CSUB-WATERCOMP =           0.0000        CSUB-WATERCOMP =           0.0000     CSUB                             
                 CHD =           0.4974                   CHD =       6.3587E-03     CHD_0                            

           TOTAL OUT =           0.4974             TOTAL OUT =       6.3587E-03

            IN - OUT =       6.8978E-08              IN - OUT =       3.7712E-10

 PERCENT DISCREPANCY =           0.00     PERCENT DISCREPANCY =           0.00




         TIME SUMMARY AT END OF TIME STEP   37 IN STRESS PERIOD    1
                    SECONDS     MINUTES      HOURS       DAYS        YEARS
                    -----------------------------------------------------------
   TIME STEP LENGTH 1.91727E+05  3195.5      53.258      2.2191     6.07547E-03
 STRESS PERIOD TIME 3.36421E+06  56070.      934.50      38.938     0.10661    
         TOTAL TIME 3.36421E+06  56070.      934.50      38.938     0.10661    


end timestep


start timestep kper="1" kstp="38" mode="normal"



  VOLUME BUDGET FOR ENTIRE MODEL AT END OF TIME STEP   38, STRESS PERIOD   1
  ---------------------------------------------------------------------------------------------------

     CUMULATIVE VOLUME      L**3       RATES FOR THIS TIME STEP      L**3/T          PACKAGE NAME    
     ------------------                 ------------------------                     ----------------

           IN:                                      IN:
           ---                                      ---
              STO-SS =           0.0000                STO-SS =           0.0000     STORAGE                          
      CSUB-CGELASTIC =           0.0000        CSUB-CGELASTIC =           0.0000     CSUB                             
        CSUB-ELASTIC =       9.9743E-02          CSUB-ELASTIC =       1.4232E-04     CSUB                             
      CSUB-INELASTIC =           0.4120        CSUB-INELASTIC =       6.0169E-03     CSUB                             
      CSUB-WATERCOMP =           0.0000        CSUB-WATERCOMP =           0.0000     CSUB                             
                 CHD =           0.0000                   CHD =           0.0000     CHD_0                            

            TOTAL IN =           0.5118              TOTAL IN =       6.1592E-03

          OUT:                                     OUT:
          ----                                     ----
              STO-SS =           0.0000                STO-SS =           0.0000     STORAGE                          
      CSUB-CGELASTIC =           0.0000        CSUB-CGELASTIC =           0.0000     CSUB                             
        CSUB-ELASTIC =           0.0000          CSUB-ELASTIC =           0.0000     CSUB                             
      CSUB-INELASTIC =           0.0000        CSUB-INELASTIC =           0.0000     CSUB                             
      CSUB-WATERCOMP =           0.0000        CSUB-WATERCOMP =           0.0000     CSUB                             
                 CHD =           0.5118                   CHD =       6.1592E-03     CHD_0                            

           TOTAL OUT =           0.5118             TOTAL OUT =       6.1592E-03

            IN - OUT =       6.9762E-08              IN - OUT =       3.3641E-10

 PERCENT DISCREPANCY =           0.00     PERCENT DISCREPANCY =           0.00




         TIME SUMMARY AT END OF TIME STEP   38 IN STRESS PERIOD    1
                    SECONDS     MINUTES      HOURS       DAYS        YEARS
                    -----------------------------------------------------------
   TIME STEP LENGTH 2.01314E+05  3355.2      55.920      2.3300     6.37924E-03
 STRESS PERIOD TIME 3.56552E+06  59425.      990.42      41.268     0.11298    
         TOTAL TIME 3.56552E+06  59425.      990.42      41.268     0.11298    


end timestep


start timestep kper="1" kstp="39" mode="normal"



  VOLUME BUDGET FOR ENTIRE MODEL AT END OF TIME STEP   39, STRESS PERIOD   1
  ---------------------------------------------------------------------------------------------------

     CUMULATIVE VOLUME      L**3       RATES FOR THIS TIME STEP      L**3/T          PACKAGE NAME    
     ------------------                 ------------------------                     ----------------

           IN:                                      IN:
           ---                                      ---
              STO-SS =           0.0000                STO-SS =           0.0000     STORAGE                          
      CSUB-CGELASTIC =           0.0000        CSUB-CGELASTIC =           0.0000     CSUB                             
        CSUB-ELASTIC =           0.1000          CSUB-ELASTIC =       1.0914E-04     CSUB                             
      CSUB-INELASTIC =           0.4264        CSUB-INELASTIC =       5.8585E-03     CSUB                             
      CSUB-WATERCOMP =           0.0000        CSUB-WATERCOMP =           0.0000     CSUB                             
                 CHD =           0.0000                   CHD =           0.0000     CHD_0                            

            TOTAL IN =           0.5264              TOTAL IN =       5.9676E-03

          OUT:                                     OUT:
          ----                                     ----
              STO-SS =           0.0000                STO-SS =           0.0000     STORAGE                          
      CSUB-CGELASTIC =           0.0000        CSUB-CGELASTIC =           0.0000     CSUB                             
        CSUB-ELASTIC =           0.0000          CSUB-ELASTIC =           0.0000     CSUB                             
      CSUB-INELASTIC =           0.0000        CSUB-INELASTIC =           0.0000     CSUB                             
      CSUB-WATERCOMP =           0.0000        CSUB-WATERCOMP =           0.0000     CSUB                             
                 CHD =           0.5264                   CHD =       5.9676E-03     CHD_0                            

           TOTAL OUT =           0.5264             TOTAL OUT =       5.9676E-03

            IN - OUT =       7.0554E-08              IN - OUT =       3.2354E-10

 PERCENT DISCREPANCY =           0.00     PERCENT DISCREPANCY =           0.00




         TIME SUMMARY AT END OF TIME STEP   39 IN STRESS PERIOD    1
                    SECONDS     MINUTES      HOURS       DAYS        YEARS
                    -----------------------------------------------------------
   TIME STEP LENGTH 2.11379E+05  3523.0      58.716      2.4465     6.69821E-03
 STRESS PERIOD TIME 3.77690E+06  62948.      1049.1      43.714     0.11968    
         TOTAL TIME 3.77690E+06  62948.      1049.1      43.714     0.11968    


end timestep


start timestep kper="1" kstp="40" mode="normal"



  VOLUME BUDGET FOR ENTIRE MODEL AT END OF TIME STEP   40, STRESS PERIOD   1
  ---------------------------------------------------------------------------------------------------

     CUMULATIVE VOLUME      L**3       RATES FOR THIS TIME STEP      L**3/T          PACKAGE NAME    
     ------------------                 ------------------------                     ----------------

           IN:                                      IN:
           ---                                      ---
              STO-SS =           0.0000                STO-SS =           0.0000     STORAGE                          
      CSUB-CGELASTIC =           0.0000        CSUB-CGELASTIC =           0.0000     CSUB                             
        CSUB-ELASTIC =           0.1002          CSUB-ELASTIC =       8.2326E-05     CSUB                             
      CSUB-INELASTIC =           0.4410        CSUB-INELASTIC =       5.7013E-03     CSUB                             
      CSUB-WATERCOMP =           0.0000        CSUB-WATERCOMP =           0.0000     CSUB                             
                 CHD =           0.0000                   CHD =           0.0000     CHD_0                            

            TOTAL IN =           0.5412              TOTAL IN =       5.7836E-03

          OUT:                                     OUT:
          ----                                     ----
              STO-SS =           0.0000                STO-SS =           0.0000     STORAGE                          
      CSUB-CGELASTIC =           0.0000        CSUB-CGELASTIC =           0.0000     CSUB                             
        CSUB-ELASTIC =           0.0000          CSUB-ELASTIC =           0.0000     CSUB                             
      CSUB-INELASTIC =           0.0000        CSUB-INELASTIC =           0.0000     CSUB                             
      CSUB-WATERCOMP =           0.0000        CSUB-WATERCOMP =           0.0000     CSUB                             
                 CHD =           0.5412                   CHD =       5.7836E-03     CHD_0                            

           TOTAL OUT =           0.5412             TOTAL OUT =       5.7836E-03

            IN - OUT =       7.1388E-08              IN - OUT =       3.2486E-10

 PERCENT DISCREPANCY =           0.00     PERCENT DISCREPANCY =           0.00




         TIME SUMMARY AT END OF TIME STEP   40 IN STRESS PERIOD    1
                    SECONDS     MINUTES      HOURS       DAYS        YEARS
                    -----------------------------------------------------------
   TIME STEP LENGTH 2.21948E+05  3699.1      61.652      2.5688     7.03312E-03
 STRESS PERIOD TIME 3.99885E+06  66648.      1110.8      46.283     0.12672    
         TOTAL TIME 3.99885E+06  66648.      1110.8      46.283     0.12672    


end timestep


start timestep kper="1" kstp="41" mode="normal"



  VOLUME BUDGET FOR ENTIRE MODEL AT END OF TIME STEP   41, STRESS PERIOD   1
  ---------------------------------------------------------------------------------------------------

     CUMULATIVE VOLUME      L**3       RATES FOR THIS TIME STEP      L**3/T          PACKAGE NAME    
     ------------------                 ------------------------                     ----------------

           IN:                                      IN:
           ---                                      ---
              STO-SS =           0.0000                STO-SS =           0.0000     STORAGE                          
      CSUB-CGELASTIC =           0.0000        CSUB-CGELASTIC =           0.0000     CSUB                             
        CSUB-ELASTIC =           0.1004          CSUB-ELASTIC =       6.0995E-05     CSUB                             
      CSUB-INELASTIC =           0.4560        CSUB-INELASTIC =       5.5457E-03     CSUB                             
      CSUB-WATERCOMP =           0.0000        CSUB-WATERCOMP =           0.0000     CSUB                             
                 CHD =           0.0000                   CHD =           0.0000     CHD_0                            

            TOTAL IN =           0.5563              TOTAL IN =       5.6067E-03

          OUT:                                     OUT:
          ----                                     ----
              STO-SS =           0.0000                STO-SS =           0.0000     STORAGE                          
      CSUB-CGELASTIC =           0.0000        CSUB-CGELASTIC =           0.0000     CSUB                             
        CSUB-ELASTIC =           0.0000          CSUB-ELASTIC =           0.0000     CSUB                             
      CSUB-INELASTIC =           0.0000        CSUB-INELASTIC =           0.0000     CSUB                             
      CSUB-WATERCOMP =           0.0000        CSUB-WATERCOMP =           0.0000     CSUB                             
                 CHD =           0.5563                   CHD =       5.6067E-03     CHD_0                            

           TOTAL OUT =           0.5563             TOTAL OUT =       5.6067E-03

            IN - OUT =       7.2287E-08              IN - OUT =       3.3324E-10

 PERCENT DISCREPANCY =           0.00     PERCENT DISCREPANCY =           0.00




         TIME SUMMARY AT END OF TIME STEP   41 IN STRESS PERIOD    1
                    SECONDS     MINUTES      HOURS       DAYS        YEARS
                    -----------------------------------------------------------
   TIME STEP LENGTH 2.33046E+05  3884.1      64.735      2.6973     7.38477E-03
 STRESS PERIOD TIME 4.23190E+06  70532.      1175.5      48.980     0.13410    
         TOTAL TIME 4.23190E+06  70532.      1175.5      48.980     0.13410    


end timestep


start timestep kper="1" kstp="42" mode="normal"



  VOLUME BUDGET FOR ENTIRE MODEL AT END OF TIME STEP   42, STRESS PERIOD   1
  ---------------------------------------------------------------------------------------------------

     CUMULATIVE VOLUME      L**3       RATES FOR THIS TIME STEP      L**3/T          PACKAGE NAME    
     ------------------                 ------------------------                     ----------------

           IN:                                      IN:
           ---                                      ---
              STO-SS =           0.0000                STO-SS =           0.0000     STORAGE                          
      CSUB-CGELASTIC =           0.0000        CSUB-CGELASTIC =           0.0000     CSUB                             
        CSUB-ELASTIC =           0.1005          CSUB-ELASTIC =       4.4327E-05     CSUB                             
      CSUB-INELASTIC =           0.4712        CSUB-INELASTIC =       5.3922E-03     CSUB                             
      CSUB-WATERCOMP =           0.0000        CSUB-WATERCOMP =           0.0000     CSUB                             
                 CHD =           0.0000                   CHD =           0.0000     CHD_0                            

            TOTAL IN =           0.5717              TOTAL IN =       5.4365E-03

          OUT:                                     OUT:
          ----                                     ----
              STO-SS =           0.0000                STO-SS =           0.0000     STORAGE                          
      CSUB-CGELASTIC =           0.0000        CSUB-CGELASTIC =           0.0000     CSUB                             
        CSUB-ELASTIC =           0.0000          CSUB-ELASTIC =           0.0000     CSUB                             
      CSUB-INELASTIC =           0.0000        CSUB-INELASTIC =           0.0000     CSUB                             
      CSUB-WATERCOMP =           0.0000        CSUB-WATERCOMP =           0.0000     CSUB                             
                 CHD =           0.5717                   CHD =       5.4365E-03     CHD_0                            

           TOTAL OUT =           0.5717             TOTAL OUT =       5.4365E-03

            IN - OUT =       7.3264E-08              IN - OUT =       3.4501E-10

 PERCENT DISCREPANCY =           0.00     PERCENT DISCREPANCY =           0.00




         TIME SUMMARY AT END OF TIME STEP   42 IN STRESS PERIOD    1
                    SECONDS     MINUTES      HOURS       DAYS        YEARS
                    -----------------------------------------------------------
   TIME STEP LENGTH 2.44698E+05  4078.3      67.972      2.8322     7.75401E-03
 STRESS PERIOD TIME 4.47659E+06  74610.      1243.5      51.812     0.14185    
         TOTAL TIME 4.47659E+06  74610.      1243.5      51.812     0.14185    


end timestep


start timestep kper="1" kstp="43" mode="normal"



  VOLUME BUDGET FOR ENTIRE MODEL AT END OF TIME STEP   43, STRESS PERIOD   1
  ---------------------------------------------------------------------------------------------------

     CUMULATIVE VOLUME      L**3       RATES FOR THIS TIME STEP      L**3/T          PACKAGE NAME    
     ------------------                 ------------------------                     ----------------

           IN:                                      IN:
           ---                                      ---
              STO-SS =           0.0000                STO-SS =           0.0000     STORAGE                          
      CSUB-CGELASTIC =           0.0000        CSUB-CGELASTIC =           0.0000     CSUB                             
        CSUB-ELASTIC =           0.1006          CSUB-ELASTIC =       3.1544E-05     CSUB                             
      CSUB-INELASTIC =           0.4868        CSUB-INELASTIC =       5.2413E-03     CSUB                             
      CSUB-WATERCOMP =           0.0000        CSUB-WATERCOMP =           0.0000     CSUB                             
                 CHD =           0.0000                   CHD =           0.0000     CHD_0                            

            TOTAL IN =           0.5874              TOTAL IN =       5.2728E-03

          OUT:                                     OUT:
          ----                                     ----
              STO-SS =           0.0000                STO-SS =           0.0000     STORAGE                          
      CSUB-CGELASTIC =           0.0000        CSUB-CGELASTIC =           0.0000     CSUB                             
        CSUB-ELASTIC =           0.0000          CSUB-ELASTIC =           0.0000     CSUB                             
      CSUB-INELASTIC =           0.0000        CSUB-INELASTIC =           0.0000     CSUB                             
      CSUB-WATERCOMP =           0.0000        CSUB-WATERCOMP =           0.0000     CSUB                             
                 CHD =           0.5874                   CHD =       5.2728E-03     CHD_0                            

           TOTAL OUT =           0.5874             TOTAL OUT =       5.2728E-03

            IN - OUT =       7.4332E-08              IN - OUT =       3.5902E-10

 PERCENT DISCREPANCY =           0.00     PERCENT DISCREPANCY =           0.00




         TIME SUMMARY AT END OF TIME STEP   43 IN STRESS PERIOD    1
                    SECONDS     MINUTES      HOURS       DAYS        YEARS
                    -----------------------------------------------------------
   TIME STEP LENGTH 2.56933E+05  4282.2      71.370      2.9738     8.14171E-03
 STRESS PERIOD TIME 4.73353E+06  78892.      1314.9      54.786     0.15000    
         TOTAL TIME 4.73353E+06  78892.      1314.9      54.786     0.15000    


end timestep


start timestep kper="1" kstp="44" mode="normal"



  VOLUME BUDGET FOR ENTIRE MODEL AT END OF TIME STEP   44, STRESS PERIOD   1
  ---------------------------------------------------------------------------------------------------

     CUMULATIVE VOLUME      L**3       RATES FOR THIS TIME STEP      L**3/T          PACKAGE NAME    
     ------------------                 ------------------------                     ----------------

           IN:                                      IN:
           ---                                      ---
              STO-SS =           0.0000                STO-SS =           0.0000     STORAGE                          
      CSUB-CGELASTIC =           0.0000        CSUB-CGELASTIC =           0.0000     CSUB                             
        CSUB-ELASTIC =           0.1007          CSUB-ELASTIC =       2.1944E-05     CSUB                             
      CSUB-INELASTIC =           0.5027        CSUB-INELASTIC =       5.0933E-03     CSUB                             
      CSUB-WATERCOMP =           0.0000        CSUB-WATERCOMP =           0.0000     CSUB                             
                 CHD =           0.0000                   CHD =           0.0000     CHD_0                            

            TOTAL IN =           0.6034              TOTAL IN =       5.1153E-03

          OUT:                                     OUT:
          ----                                     ----
              STO-SS =           0.0000                STO-SS =           0.0000     STORAGE                          
      CSUB-CGELASTIC =           0.0000        CSUB-CGELASTIC =           0.0000     CSUB                             
        CSUB-ELASTIC =           0.0000          CSUB-ELASTIC =           0.0000     CSUB                             
      CSUB-INELASTIC =           0.0000        CSUB-INELASTIC =           0.0000     CSUB                             
      CSUB-WATERCOMP =           0.0000        CSUB-WATERCOMP =           0.0000     CSUB                             
                 CHD =           0.6034                   CHD =       5.1153E-03     CHD_0                            

           TOTAL OUT =           0.6034             TOTAL OUT =       5.1153E-03

            IN - OUT =       7.5500E-08              IN - OUT =       3.7412E-10

 PERCENT DISCREPANCY =           0.00     PERCENT DISCREPANCY =           0.00




         TIME SUMMARY AT END OF TIME STEP   44 IN STRESS PERIOD    1
                    SECONDS     MINUTES      HOURS       DAYS        YEARS
                    -----------------------------------------------------------
   TIME STEP LENGTH 2.69779E+05  4496.3      74.939      3.1224     8.54880E-03
 STRESS PERIOD TIME 5.00331E+06  83388.      1389.8      57.909     0.15855    
         TOTAL TIME 5.00331E+06  83388.      1389.8      57.909     0.15855    


end timestep


start timestep kper="1" kstp="45" mode="normal"



  VOLUME BUDGET FOR ENTIRE MODEL AT END OF TIME STEP   45, STRESS PERIOD   1
  ---------------------------------------------------------------------------------------------------

     CUMULATIVE VOLUME      L**3       RATES FOR THIS TIME STEP      L**3/T          PACKAGE NAME    
     ------------------                 ------------------------                     ----------------

           IN:                                      IN:
           ---                                      ---
              STO-SS =           0.0000                STO-SS =           0.0000     STORAGE                          
      CSUB-CGELASTIC =           0.0000        CSUB-CGELASTIC =           0.0000     CSUB                             
        CSUB-ELASTIC =           0.1007          CSUB-ELASTIC =       1.4890E-05     CSUB                             
      CSUB-INELASTIC =           0.5189        CSUB-INELASTIC =       4.9487E-03     CSUB                             
      CSUB-WATERCOMP =           0.0000        CSUB-WATERCOMP =           0.0000     CSUB                             
                 CHD =           0.0000                   CHD =           0.0000     CHD_0                            

            TOTAL IN =           0.6197              TOTAL IN =       4.9636E-03

          OUT:                                     OUT:
          ----                                     ----
              STO-SS =           0.0000                STO-SS =           0.0000     STORAGE                          
      CSUB-CGELASTIC =           0.0000        CSUB-CGELASTIC =           0.0000     CSUB                             
        CSUB-ELASTIC =           0.0000          CSUB-ELASTIC =           0.0000     CSUB                             
      CSUB-INELASTIC =           0.0000        CSUB-INELASTIC =           0.0000     CSUB                             
      CSUB-WATERCOMP =           0.0000        CSUB-WATERCOMP =           0.0000     CSUB                             
                 CHD =           0.6197                   CHD =       4.9636E-03     CHD_0                            

           TOTAL OUT =           0.6197             TOTAL OUT =       4.9636E-03

            IN - OUT =       7.6778E-08              IN - OUT =       3.9000E-10

 PERCENT DISCREPANCY =           0.00     PERCENT DISCREPANCY =           0.00




         TIME SUMMARY AT END OF TIME STEP   45 IN STRESS PERIOD    1
                    SECONDS     MINUTES      HOURS       DAYS        YEARS
                    -----------------------------------------------------------
   TIME STEP LENGTH 2.83268E+05  4721.1      78.686      3.2786     8.97624E-03
 STRESS PERIOD TIME 5.28657E+06  88110.      1468.5      61.187     0.16752    
         TOTAL TIME 5.28657E+06  88110.      1468.5      61.187     0.16752    


end timestep


start timestep kper="1" kstp="46" mode="normal"



  VOLUME BUDGET FOR ENTIRE MODEL AT END OF TIME STEP   46, STRESS PERIOD   1
  ---------------------------------------------------------------------------------------------------

     CUMULATIVE VOLUME      L**3       RATES FOR THIS TIME STEP      L**3/T          PACKAGE NAME    
     ------------------                 ------------------------                     ----------------

           IN:                                      IN:
           ---                                      ---
              STO-SS =           0.0000                STO-SS =           0.0000     STORAGE                          
      CSUB-CGELASTIC =           0.0000        CSUB-CGELASTIC =           0.0000     CSUB                             
        CSUB-ELASTIC =           0.1008          CSUB-ELASTIC =       9.8349E-06     CSUB                             
      CSUB-INELASTIC =           0.5355        CSUB-INELASTIC =       4.8076E-03     CSUB                             
      CSUB-WATERCOMP =           0.0000        CSUB-WATERCOMP =           0.0000     CSUB                             
                 CHD =           0.0000                   CHD =           0.0000     CHD_0                            

            TOTAL IN =           0.6363              TOTAL IN =       4.8174E-03

          OUT:                                     OUT:
          ----                                     ----
              STO-SS =           0.0000                STO-SS =           0.0000     STORAGE                          
      CSUB-CGELASTIC =           0.0000        CSUB-CGELASTIC =           0.0000     CSUB                             
        CSUB-ELASTIC =           0.0000          CSUB-ELASTIC =           0.0000     CSUB                             
      CSUB-INELASTIC =           0.0000        CSUB-INELASTIC =           0.0000     CSUB                             
      CSUB-WATERCOMP =           0.0000        CSUB-WATERCOMP =           0.0000     CSUB                             
                 CHD =           0.6363                   CHD =       4.8174E-03     CHD_0                            

           TOTAL OUT =           0.6363             TOTAL OUT =       4.8174E-03

            IN - OUT =       7.8180E-08              IN - OUT =       4.0707E-10

 PERCENT DISCREPANCY =           0.00     PERCENT DISCREPANCY =           0.00




         TIME SUMMARY AT END OF TIME STEP   46 IN STRESS PERIOD    1
                    SECONDS     MINUTES      HOURS       DAYS        YEARS
                    -----------------------------------------------------------
   TIME STEP LENGTH 2.97432E+05  4957.2      82.620      3.4425     9.42505E-03
 STRESS PERIOD TIME 5.58401E+06  93067.      1551.1      64.630     0.17695    
         TOTAL TIME 5.58401E+06  93067.      1551.1      64.630     0.17695    


end timestep


start timestep kper="1" kstp="47" mode="normal"



  VOLUME BUDGET FOR ENTIRE MODEL AT END OF TIME STEP   47, STRESS PERIOD   1
  ---------------------------------------------------------------------------------------------------

     CUMULATIVE VOLUME      L**3       RATES FOR THIS TIME STEP      L**3/T          PACKAGE NAME    
     ------------------                 ------------------------                     ----------------

           IN:                                      IN:
           ---                                      ---
              STO-SS =           0.0000                STO-SS =           0.0000     STORAGE                          
      CSUB-CGELASTIC =           0.0000        CSUB-CGELASTIC =           0.0000     CSUB                             
        CSUB-ELASTIC =           0.1008          CSUB-ELASTIC =       6.3049E-06     CSUB                             
      CSUB-INELASTIC =           0.5524        CSUB-INELASTIC =       4.6703E-03     CSUB                             
      CSUB-WATERCOMP =           0.0000        CSUB-WATERCOMP =           0.0000     CSUB                             
                 CHD =           0.0000                   CHD =           0.0000     CHD_0                            

            TOTAL IN =           0.6532              TOTAL IN =       4.6766E-03

          OUT:                                     OUT:
          ----                                     ----
              STO-SS =           0.0000                STO-SS =           0.0000     STORAGE                          
      CSUB-CGELASTIC =           0.0000        CSUB-CGELASTIC =           0.0000     CSUB                             
        CSUB-ELASTIC =           0.0000          CSUB-ELASTIC =           0.0000     CSUB                             
      CSUB-INELASTIC =           0.0000        CSUB-INELASTIC =           0.0000     CSUB                             
      CSUB-WATERCOMP =           0.0000        CSUB-WATERCOMP =           0.0000     CSUB                             
                 CHD =           0.6532                   CHD =       4.6766E-03     CHD_0                            

           TOTAL OUT =           0.6532             TOTAL OUT =       4.6766E-03

            IN - OUT =       7.9713E-08              IN - OUT =       4.2415E-10

 PERCENT DISCREPANCY =           0.00     PERCENT DISCREPANCY =           0.00




         TIME SUMMARY AT END OF TIME STEP   47 IN STRESS PERIOD    1
                    SECONDS     MINUTES      HOURS       DAYS        YEARS
                    -----------------------------------------------------------
   TIME STEP LENGTH 3.12303E+05  5205.1      86.751      3.6146     9.89630E-03
 STRESS PERIOD TIME 5.89631E+06  98272.      1637.9      68.244     0.18684    
         TOTAL TIME 5.89631E+06  98272.      1637.9      68.244     0.18684    


end timestep


start timestep kper="1" kstp="48" mode="normal"



  VOLUME BUDGET FOR ENTIRE MODEL AT END OF TIME STEP   48, STRESS PERIOD   1
  ---------------------------------------------------------------------------------------------------

     CUMULATIVE VOLUME      L**3       RATES FOR THIS TIME STEP      L**3/T          PACKAGE NAME    
     ------------------                 ------------------------                     ----------------

           IN:                                      IN:
           ---                                      ---
              STO-SS =           0.0000                STO-SS =           0.0000     STORAGE                          
      CSUB-CGELASTIC =           0.0000        CSUB-CGELASTIC =           0.0000     CSUB                             
        CSUB-ELASTIC =           0.1008          CSUB-ELASTIC =       3.9121E-06     CSUB                             
      CSUB-INELASTIC =           0.5696        CSUB-INELASTIC =       4.5370E-03     CSUB                             
      CSUB-WATERCOMP =           0.0000        CSUB-WATERCOMP =           0.0000     CSUB                             
                 CHD =           0.0000                   CHD =           0.0000     CHD_0                            

            TOTAL IN =           0.6704              TOTAL IN =       4.5409E-03

          OUT:                                     OUT:
          ----                                     ----
              STO-SS =           0.0000                STO-SS =           0.0000     STORAGE                          
      CSUB-CGELASTIC =           0.0000        CSUB-CGELASTIC =           0.0000     CSUB                             
        CSUB-ELASTIC =           0.0000          CSUB-ELASTIC =           0.0000     CSUB                             
      CSUB-INELASTIC =           0.0000        CSUB-INELASTIC =           0.0000     CSUB                             
      CSUB-WATERCOMP =           0.0000        CSUB-WATERCOMP =           0.0000     CSUB                             
                 CHD =           0.6704                   CHD =       4.5409E-03     CHD_0                            

           TOTAL OUT =           0.6704             TOTAL OUT =       4.5409E-03

            IN - OUT =       8.1389E-08              IN - OUT =       4.4172E-10

 PERCENT DISCREPANCY =           0.00     PERCENT DISCREPANCY =           0.00




         TIME SUMMARY AT END OF TIME STEP   48 IN STRESS PERIOD    1
                    SECONDS     MINUTES      HOURS       DAYS        YEARS
                    -----------------------------------------------------------
   TIME STEP LENGTH 3.27919E+05  5465.3      91.089      3.7954     1.03911E-02
 STRESS PERIOD TIME 6.22423E+06 1.03737E+05  1729.0      72.040     0.19723    
         TOTAL TIME 6.22423E+06 1.03737E+05  1729.0      72.040     0.19723    


end timestep


start timestep kper="1" kstp="49" mode="normal"



  VOLUME BUDGET FOR ENTIRE MODEL AT END OF TIME STEP   49, STRESS PERIOD   1
  ---------------------------------------------------------------------------------------------------

     CUMULATIVE VOLUME      L**3       RATES FOR THIS TIME STEP      L**3/T          PACKAGE NAME    
     ------------------                 ------------------------                     ----------------

           IN:                                      IN:
           ---                                      ---
              STO-SS =           0.0000                STO-SS =           0.0000     STORAGE                          
      CSUB-CGELASTIC =           0.0000        CSUB-CGELASTIC =           0.0000     CSUB                             
        CSUB-ELASTIC =           0.1008          CSUB-ELASTIC =       2.3411E-06     CSUB                             
      CSUB-INELASTIC =           0.5872        CSUB-INELASTIC =       4.4077E-03     CSUB                             
      CSUB-WATERCOMP =           0.0000        CSUB-WATERCOMP =           0.0000     CSUB                             
                 CHD =           0.0000                   CHD =           0.0000     CHD_0                            

            TOTAL IN =           0.6880              TOTAL IN =       4.4100E-03

          OUT:                                     OUT:
          ----                                     ----
              STO-SS =           0.0000                STO-SS =           0.0000     STORAGE                          
      CSUB-CGELASTIC =           0.0000        CSUB-CGELASTIC =           0.0000     CSUB                             
        CSUB-ELASTIC =           0.0000          CSUB-ELASTIC =           0.0000     CSUB                             
      CSUB-INELASTIC =           0.0000        CSUB-INELASTIC =           0.0000     CSUB                             
      CSUB-WATERCOMP =           0.0000        CSUB-WATERCOMP =           0.0000     CSUB                             
                 CHD =           0.6880                   CHD =       4.4100E-03     CHD_0                            

           TOTAL OUT =           0.6880             TOTAL OUT =       4.4100E-03

            IN - OUT =       8.3222E-08              IN - OUT =       4.5977E-10

 PERCENT DISCREPANCY =           0.00     PERCENT DISCREPANCY =           0.00




         TIME SUMMARY AT END OF TIME STEP   49 IN STRESS PERIOD    1
                    SECONDS     MINUTES      HOURS       DAYS        YEARS
                    -----------------------------------------------------------
   TIME STEP LENGTH 3.44315E+05  5738.6      95.643      3.9851     1.09107E-02
 STRESS PERIOD TIME 6.56854E+06 1.09476E+05  1824.6      76.025     0.20814    
         TOTAL TIME 6.56854E+06 1.09476E+05  1824.6      76.025     0.20814    


end timestep


start timestep kper="1" kstp="50" mode="normal"



  VOLUME BUDGET FOR ENTIRE MODEL AT END OF TIME STEP   50, STRESS PERIOD   1
  ---------------------------------------------------------------------------------------------------

     CUMULATIVE VOLUME      L**3       RATES FOR THIS TIME STEP      L**3/T          PACKAGE NAME    
     ------------------                 ------------------------                     ----------------

           IN:                                      IN:
           ---                                      ---
              STO-SS =           0.0000                STO-SS =           0.0000     STORAGE                          
      CSUB-CGELASTIC =           0.0000        CSUB-CGELASTIC =           0.0000     CSUB                             
        CSUB-ELASTIC =           0.1008          CSUB-ELASTIC =       1.3457E-06     CSUB                             
      CSUB-INELASTIC =           0.6051        CSUB-INELASTIC =       4.2824E-03     CSUB                             
      CSUB-WATERCOMP =           0.0000        CSUB-WATERCOMP =           0.0000     CSUB                             
                 CHD =           0.0000                   CHD =           0.0000     CHD_0                            

            TOTAL IN =           0.7059              TOTAL IN =       4.2838E-03

          OUT:                                     OUT:
          ----                                     ----
              STO-SS =           0.0000                STO-SS =           0.0000     STORAGE                          
      CSUB-CGELASTIC =           0.0000        CSUB-CGELASTIC =           0.0000     CSUB                             
        CSUB-ELASTIC =           0.0000          CSUB-ELASTIC =           0.0000     CSUB                             
      CSUB-INELASTIC =           0.0000        CSUB-INELASTIC =           0.0000     CSUB                             
      CSUB-WATERCOMP =           0.0000        CSUB-WATERCOMP =           0.0000     CSUB                             
                 CHD =           0.7059                   CHD =       4.2838E-03     CHD_0                            

           TOTAL OUT =           0.7059             TOTAL OUT =       4.2838E-03

            IN - OUT =       8.5223E-08              IN - OUT =       4.7828E-10

 PERCENT DISCREPANCY =           0.00     PERCENT DISCREPANCY =           0.00




         TIME SUMMARY AT END OF TIME STEP   50 IN STRESS PERIOD    1
                    SECONDS     MINUTES      HOURS       DAYS        YEARS
                    -----------------------------------------------------------
   TIME STEP LENGTH 3.61530E+05  6025.5      100.43      4.1844     1.14562E-02
 STRESS PERIOD TIME 6.93007E+06 1.15501E+05  1925.0      80.209     0.21960    
         TOTAL TIME 6.93007E+06 1.15501E+05  1925.0      80.209     0.21960    


end timestep


start timestep kper="1" kstp="51" mode="normal"



  VOLUME BUDGET FOR ENTIRE MODEL AT END OF TIME STEP   51, STRESS PERIOD   1
  ---------------------------------------------------------------------------------------------------

     CUMULATIVE VOLUME      L**3       RATES FOR THIS TIME STEP      L**3/T          PACKAGE NAME    
     ------------------                 ------------------------                     ----------------

           IN:                                      IN:
           ---                                      ---
              STO-SS =           0.0000                STO-SS =           0.0000     STORAGE                          
      CSUB-CGELASTIC =           0.0000        CSUB-CGELASTIC =           0.0000     CSUB                             
        CSUB-ELASTIC =           0.1008          CSUB-ELASTIC =       7.3949E-07     CSUB                             
      CSUB-INELASTIC =           0.6234        CSUB-INELASTIC =       4.1612E-03     CSUB                             
      CSUB-WATERCOMP =           0.0000        CSUB-WATERCOMP =           0.0000     CSUB                             
                 CHD =           0.0000                   CHD =           0.0000     CHD_0                            

            TOTAL IN =           0.7242              TOTAL IN =       4.1619E-03

          OUT:                                     OUT:
          ----                                     ----
              STO-SS =           0.0000                STO-SS =           0.0000     STORAGE                          
      CSUB-CGELASTIC =           0.0000        CSUB-CGELASTIC =           0.0000     CSUB                             
        CSUB-ELASTIC =           0.0000          CSUB-ELASTIC =           0.0000     CSUB                             
      CSUB-INELASTIC =           0.0000        CSUB-INELASTIC =           0.0000     CSUB                             
      CSUB-WATERCOMP =           0.0000        CSUB-WATERCOMP =           0.0000     CSUB                             
                 CHD =           0.7242                   CHD =       4.1619E-03     CHD_0                            

           TOTAL OUT =           0.7242             TOTAL OUT =       4.1619E-03

            IN - OUT =       8.7408E-08              IN - OUT =       4.9724E-10

 PERCENT DISCREPANCY =           0.00     PERCENT DISCREPANCY =           0.00




         TIME SUMMARY AT END OF TIME STEP   51 IN STRESS PERIOD    1
                    SECONDS     MINUTES      HOURS       DAYS        YEARS
                    -----------------------------------------------------------
   TIME STEP LENGTH 3.79607E+05  6326.8      105.45      4.3936     1.20290E-02
 STRESS PERIOD TIME 7.30968E+06 1.21828E+05  2030.5      84.603     0.23163    
         TOTAL TIME 7.30968E+06 1.21828E+05  2030.5      84.603     0.23163    


end timestep


start timestep kper="1" kstp="52" mode="normal"



  VOLUME BUDGET FOR ENTIRE MODEL AT END OF TIME STEP   52, STRESS PERIOD   1
  ---------------------------------------------------------------------------------------------------

     CUMULATIVE VOLUME      L**3       RATES FOR THIS TIME STEP      L**3/T          PACKAGE NAME    
     ------------------                 ------------------------                     ----------------

           IN:                                      IN:
           ---                                      ---
              STO-SS =           0.0000                STO-SS =           0.0000     STORAGE                          
      CSUB-CGELASTIC =           0.0000        CSUB-CGELASTIC =           0.0000     CSUB                             
        CSUB-ELASTIC =           0.1008          CSUB-ELASTIC =       3.8644E-07     CSUB                             
      CSUB-INELASTIC =           0.6420        CSUB-INELASTIC =       4.0439E-03     CSUB                             
      CSUB-WATERCOMP =           0.0000        CSUB-WATERCOMP =           0.0000     CSUB                             
                 CHD =           0.0000                   CHD =           0.0000     CHD_0                            

            TOTAL IN =           0.7428              TOTAL IN =       4.0443E-03

          OUT:                                     OUT:
          ----                                     ----
              STO-SS =           0.0000                STO-SS =           0.0000     STORAGE                          
      CSUB-CGELASTIC =           0.0000        CSUB-CGELASTIC =           0.0000     CSUB                             
        CSUB-ELASTIC =           0.0000          CSUB-ELASTIC =           0.0000     CSUB                             
      CSUB-INELASTIC =           0.0000        CSUB-INELASTIC =           0.0000     CSUB                             
      CSUB-WATERCOMP =           0.0000        CSUB-WATERCOMP =           0.0000     CSUB                             
                 CHD =           0.7428                   CHD =       4.0443E-03     CHD_0                            

           TOTAL OUT =           0.7428             TOTAL OUT =       4.0443E-03

            IN - OUT =       8.9791E-08              IN - OUT =       5.1662E-10

 PERCENT DISCREPANCY =           0.00     PERCENT DISCREPANCY =           0.00




         TIME SUMMARY AT END OF TIME STEP   52 IN STRESS PERIOD    1
                    SECONDS     MINUTES      HOURS       DAYS        YEARS
                    -----------------------------------------------------------
   TIME STEP LENGTH 3.98587E+05  6643.1      110.72      4.6133     1.26305E-02
 STRESS PERIOD TIME 7.70827E+06 1.28471E+05  2141.2      89.216     0.24426    
         TOTAL TIME 7.70827E+06 1.28471E+05  2141.2      89.216     0.24426    


end timestep


start timestep kper="1" kstp="53" mode="normal"



  VOLUME BUDGET FOR ENTIRE MODEL AT END OF TIME STEP   53, STRESS PERIOD   1
  ---------------------------------------------------------------------------------------------------

     CUMULATIVE VOLUME      L**3       RATES FOR THIS TIME STEP      L**3/T          PACKAGE NAME    
     ------------------                 ------------------------                     ----------------

           IN:                                      IN:
           ---                                      ---
              STO-SS =           0.0000                STO-SS =           0.0000     STORAGE                          
      CSUB-CGELASTIC =           0.0000        CSUB-CGELASTIC =           0.0000     CSUB                             
        CSUB-ELASTIC =           0.1008          CSUB-ELASTIC =       1.9074E-07     CSUB                             
      CSUB-INELASTIC =           0.6611        CSUB-INELASTIC =       3.9305E-03     CSUB                             
      CSUB-WATERCOMP =           0.0000        CSUB-WATERCOMP =           0.0000     CSUB                             
                 CHD =           0.0000                   CHD =           0.0000     CHD_0                            

            TOTAL IN =           0.7619              TOTAL IN =       3.9307E-03

          OUT:                                     OUT:
          ----                                     ----
              STO-SS =           0.0000                STO-SS =           0.0000     STORAGE                          
      CSUB-CGELASTIC =           0.0000        CSUB-CGELASTIC =           0.0000     CSUB                             
        CSUB-ELASTIC =           0.0000          CSUB-ELASTIC =           0.0000     CSUB                             
      CSUB-INELASTIC =           0.0000        CSUB-INELASTIC =           0.0000     CSUB                             
      CSUB-WATERCOMP =           0.0000        CSUB-WATERCOMP =           0.0000     CSUB                             
                 CHD =           0.7619                   CHD =       3.9307E-03     CHD_0                            

           TOTAL OUT =           0.7619             TOTAL OUT =       3.9307E-03

            IN - OUT =       9.2389E-08              IN - OUT =       5.3643E-10

 PERCENT DISCREPANCY =           0.00     PERCENT DISCREPANCY =           0.00




         TIME SUMMARY AT END OF TIME STEP   53 IN STRESS PERIOD    1
                    SECONDS     MINUTES      HOURS       DAYS        YEARS
                    -----------------------------------------------------------
   TIME STEP LENGTH 4.18517E+05  6975.3      116.25      4.8439     1.32620E-02
 STRESS PERIOD TIME 8.12678E+06 1.35446E+05  2257.4      94.060     0.25752    
         TOTAL TIME 8.12678E+06 1.35446E+05  2257.4      94.060     0.25752    


end timestep


start timestep kper="1" kstp="54" mode="normal"



  VOLUME BUDGET FOR ENTIRE MODEL AT END OF TIME STEP   54, STRESS PERIOD   1
  ---------------------------------------------------------------------------------------------------

     CUMULATIVE VOLUME      L**3       RATES FOR THIS TIME STEP      L**3/T          PACKAGE NAME    
     ------------------                 ------------------------                     ----------------

           IN:                                      IN:
           ---                                      ---
              STO-SS =           0.0000                STO-SS =           0.0000     STORAGE                          
      CSUB-CGELASTIC =           0.0000        CSUB-CGELASTIC =           0.0000     CSUB                             
        CSUB-ELASTIC =           0.1008          CSUB-ELASTIC =       8.8226E-08     CSUB                             
      CSUB-INELASTIC =           0.6805        CSUB-INELASTIC =       3.8208E-03     CSUB                             
      CSUB-WATERCOMP =           0.0000        CSUB-WATERCOMP =           0.0000     CSUB                             
                 CHD =           0.0000                   CHD =           0.0000     CHD_0                            

            TOTAL IN =           0.7813              TOTAL IN =       3.8209E-03

          OUT:                                     OUT:
          ----                                     ----
              STO-SS =           0.0000                STO-SS =           0.0000     STORAGE                          
      CSUB-CGELASTIC =           0.0000        CSUB-CGELASTIC =           0.0000     CSUB                             
        CSUB-ELASTIC =           0.0000          CSUB-ELASTIC =           0.0000     CSUB                             
      CSUB-INELASTIC =           0.0000        CSUB-INELASTIC =           0.0000     CSUB                             
      CSUB-WATERCOMP =           0.0000        CSUB-WATERCOMP =           0.0000     CSUB                             
                 CHD =           0.7813                   CHD =       3.8209E-03     CHD_0                            

           TOTAL OUT =           0.7813             TOTAL OUT =       3.8209E-03

            IN - OUT =       9.5221E-08              IN - OUT =       5.5665E-10

 PERCENT DISCREPANCY =           0.00     PERCENT DISCREPANCY =           0.00




         TIME SUMMARY AT END OF TIME STEP   54 IN STRESS PERIOD    1
                    SECONDS     MINUTES      HOURS       DAYS        YEARS
                    -----------------------------------------------------------
   TIME STEP LENGTH 4.39442E+05  7324.0      122.07      5.0861     1.39251E-02
 STRESS PERIOD TIME 8.56623E+06 1.42770E+05  2379.5      99.146     0.27145    
         TOTAL TIME 8.56623E+06 1.42770E+05  2379.5      99.146     0.27145    


end timestep


start timestep kper="1" kstp="55" mode="normal"



  VOLUME BUDGET FOR ENTIRE MODEL AT END OF TIME STEP   55, STRESS PERIOD   1
  ---------------------------------------------------------------------------------------------------

     CUMULATIVE VOLUME      L**3       RATES FOR THIS TIME STEP      L**3/T          PACKAGE NAME    
     ------------------                 ------------------------                     ----------------

           IN:                                      IN:
           ---                                      ---
              STO-SS =           0.0000                STO-SS =           0.0000     STORAGE                          
      CSUB-CGELASTIC =           0.0000        CSUB-CGELASTIC =           0.0000     CSUB                             
        CSUB-ELASTIC =           0.1008          CSUB-ELASTIC =       3.7883E-08     CSUB                             
      CSUB-INELASTIC =           0.7003        CSUB-INELASTIC =       3.7148E-03     CSUB                             
      CSUB-WATERCOMP =           0.0000        CSUB-WATERCOMP =           0.0000     CSUB                             
                 CHD =           0.0000                   CHD =           0.0000     CHD_0                            

            TOTAL IN =           0.8011              TOTAL IN =       3.7148E-03

          OUT:                                     OUT:
          ----                                     ----
              STO-SS =           0.0000                STO-SS =           0.0000     STORAGE                          
      CSUB-CGELASTIC =           0.0000        CSUB-CGELASTIC =           0.0000     CSUB                             
        CSUB-ELASTIC =           0.0000          CSUB-ELASTIC =           0.0000     CSUB                             
      CSUB-INELASTIC =           0.0000        CSUB-INELASTIC =           0.0000     CSUB                             
      CSUB-WATERCOMP =           0.0000        CSUB-WATERCOMP =           0.0000     CSUB                             
                 CHD =           0.8011                   CHD =       3.7148E-03     CHD_0                            

           TOTAL OUT =           0.8011             TOTAL OUT =       3.7148E-03

            IN - OUT =       9.8303E-08              IN - OUT =       5.7727E-10

 PERCENT DISCREPANCY =           0.00     PERCENT DISCREPANCY =           0.00




         TIME SUMMARY AT END OF TIME STEP   55 IN STRESS PERIOD    1
                    SECONDS     MINUTES      HOURS       DAYS        YEARS
                    -----------------------------------------------------------
   TIME STEP LENGTH 4.61414E+05  7690.2      128.17      5.3404     1.46213E-02
 STRESS PERIOD TIME 9.02764E+06 1.50461E+05  2507.7      104.49     0.28607    
         TOTAL TIME 9.02764E+06 1.50461E+05  2507.7      104.49     0.28607    


end timestep


start timestep kper="1" kstp="56" mode="normal"



  VOLUME BUDGET FOR ENTIRE MODEL AT END OF TIME STEP   56, STRESS PERIOD   1
  ---------------------------------------------------------------------------------------------------

     CUMULATIVE VOLUME      L**3       RATES FOR THIS TIME STEP      L**3/T          PACKAGE NAME    
     ------------------                 ------------------------                     ----------------

           IN:                                      IN:
           ---                                      ---
              STO-SS =           0.0000                STO-SS =           0.0000     STORAGE                          
      CSUB-CGELASTIC =           0.0000        CSUB-CGELASTIC =           0.0000     CSUB                             
        CSUB-ELASTIC =           0.1008          CSUB-ELASTIC =       1.4917E-08     CSUB                             
      CSUB-INELASTIC =           0.7206        CSUB-INELASTIC =       3.6123E-03     CSUB                             
      CSUB-WATERCOMP =           0.0000        CSUB-WATERCOMP =           0.0000     CSUB                             
                 CHD =           0.0000                   CHD =           0.0000     CHD_0                            

            TOTAL IN =           0.8214              TOTAL IN =       3.6123E-03

          OUT:                                     OUT:
          ----                                     ----
              STO-SS =           0.0000                STO-SS =           0.0000     STORAGE                          
      CSUB-CGELASTIC =           0.0000        CSUB-CGELASTIC =           0.0000     CSUB                             
        CSUB-ELASTIC =           0.0000          CSUB-ELASTIC =           0.0000     CSUB                             
      CSUB-INELASTIC =           0.0000        CSUB-INELASTIC =           0.0000     CSUB                             
      CSUB-WATERCOMP =           0.0000        CSUB-WATERCOMP =           0.0000     CSUB                             
                 CHD =           0.8214                   CHD =       3.6123E-03     CHD_0                            

           TOTAL OUT =           0.8214             TOTAL OUT =       3.6123E-03

            IN - OUT =       1.0166E-07              IN - OUT =       5.9828E-10

 PERCENT DISCREPANCY =           0.00     PERCENT DISCREPANCY =           0.00




         TIME SUMMARY AT END OF TIME STEP   56 IN STRESS PERIOD    1
                    SECONDS     MINUTES      HOURS       DAYS        YEARS
                    -----------------------------------------------------------
   TIME STEP LENGTH 4.84485E+05  8074.8      134.58      5.6075     1.53524E-02
 STRESS PERIOD TIME 9.51213E+06 1.58535E+05  2642.3      110.09     0.30142    
         TOTAL TIME 9.51213E+06 1.58535E+05  2642.3      110.09     0.30142    


end timestep


start timestep kper="1" kstp="57" mode="normal"



  VOLUME BUDGET FOR ENTIRE MODEL AT END OF TIME STEP   57, STRESS PERIOD   1
  ---------------------------------------------------------------------------------------------------

     CUMULATIVE VOLUME      L**3       RATES FOR THIS TIME STEP      L**3/T          PACKAGE NAME    
     ------------------                 ------------------------                     ----------------

           IN:                                      IN:
           ---                                      ---
              STO-SS =           0.0000                STO-SS =           0.0000     STORAGE                          
      CSUB-CGELASTIC =           0.0000        CSUB-CGELASTIC =           0.0000     CSUB                             
        CSUB-ELASTIC =           0.1008          CSUB-ELASTIC =       5.3071E-09     CSUB                             
      CSUB-INELASTIC =           0.7413        CSUB-INELASTIC =       3.5131E-03     CSUB                             
      CSUB-WATERCOMP =           0.0000        CSUB-WATERCOMP =           0.0000     CSUB                             
                 CHD =           0.0000                   CHD =           0.0000     CHD_0                            

            TOTAL IN =           0.8421              TOTAL IN =       3.5131E-03

          OUT:                                     OUT:
          ----                                     ----
              STO-SS =           0.0000                STO-SS =           0.0000     STORAGE                          
      CSUB-CGELASTIC =           0.0000        CSUB-CGELASTIC =           0.0000     CSUB                             
        CSUB-ELASTIC =           0.0000          CSUB-ELASTIC =           0.0000     CSUB                             
      CSUB-INELASTIC =           0.0000        CSUB-INELASTIC =           0.0000     CSUB                             
      CSUB-WATERCOMP =           0.0000        CSUB-WATERCOMP =           0.0000     CSUB                             
                 CHD =           0.8421                   CHD =       3.5131E-03     CHD_0                            

           TOTAL OUT =           0.8421             TOTAL OUT =       3.5131E-03

            IN - OUT =       1.0531E-07              IN - OUT =       6.1968E-10

 PERCENT DISCREPANCY =           0.00     PERCENT DISCREPANCY =           0.00




         TIME SUMMARY AT END OF TIME STEP   57 IN STRESS PERIOD    1
                    SECONDS     MINUTES      HOURS       DAYS        YEARS
                    -----------------------------------------------------------
   TIME STEP LENGTH 5.08709E+05  8478.5      141.31      5.8878     1.61200E-02
 STRESS PERIOD TIME 1.00208E+07 1.67014E+05  2783.6      115.98     0.31754    
         TOTAL TIME 1.00208E+07 1.67014E+05  2783.6      115.98     0.31754    


end timestep


start timestep kper="1" kstp="58" mode="normal"



  VOLUME BUDGET FOR ENTIRE MODEL AT END OF TIME STEP   58, STRESS PERIOD   1
  ---------------------------------------------------------------------------------------------------

     CUMULATIVE VOLUME      L**3       RATES FOR THIS TIME STEP      L**3/T          PACKAGE NAME    
     ------------------                 ------------------------                     ----------------

           IN:                                      IN:
           ---                                      ---
              STO-SS =           0.0000                STO-SS =           0.0000     STORAGE                          
      CSUB-CGELASTIC =           0.0000        CSUB-CGELASTIC =           0.0000     CSUB                             
        CSUB-ELASTIC =           0.1008          CSUB-ELASTIC =       1.6737E-09     CSUB                             
      CSUB-INELASTIC =           0.7624        CSUB-INELASTIC =       3.4172E-03     CSUB                             
      CSUB-WATERCOMP =           0.0000        CSUB-WATERCOMP =           0.0000     CSUB                             
                 CHD =           0.0000                   CHD =           0.0000     CHD_0                            

            TOTAL IN =           0.8632              TOTAL IN =       3.4172E-03

          OUT:                                     OUT:
          ----                                     ----
              STO-SS =           0.0000                STO-SS =           0.0000     STORAGE                          
      CSUB-CGELASTIC =           0.0000        CSUB-CGELASTIC =           0.0000     CSUB                             
        CSUB-ELASTIC =           0.0000          CSUB-ELASTIC =           0.0000     CSUB                             
      CSUB-INELASTIC =           0.0000        CSUB-INELASTIC =           0.0000     CSUB                             
      CSUB-WATERCOMP =           0.0000        CSUB-WATERCOMP =           0.0000     CSUB                             
                 CHD =           0.8632                   CHD =       3.4172E-03     CHD_0                            

           TOTAL OUT =           0.8632             TOTAL OUT =       3.4172E-03

            IN - OUT =       1.0927E-07              IN - OUT =       6.4146E-10

 PERCENT DISCREPANCY =           0.00     PERCENT DISCREPANCY =           0.00




         TIME SUMMARY AT END OF TIME STEP   58 IN STRESS PERIOD    1
                    SECONDS     MINUTES      HOURS       DAYS        YEARS
                    -----------------------------------------------------------
   TIME STEP LENGTH 5.34145E+05  8902.4      148.37      6.1822     1.69260E-02
 STRESS PERIOD TIME 1.05550E+07 1.75916E+05  2931.9      122.16     0.33447    
         TOTAL TIME 1.05550E+07 1.75916E+05  2931.9      122.16     0.33447    


end timestep


start timestep kper="1" kstp="59" mode="normal"



  VOLUME BUDGET FOR ENTIRE MODEL AT END OF TIME STEP   59, STRESS PERIOD   1
  ---------------------------------------------------------------------------------------------------

     CUMULATIVE VOLUME      L**3       RATES FOR THIS TIME STEP      L**3/T          PACKAGE NAME    
     ------------------                 ------------------------                     ----------------

           IN:                                      IN:
           ---                                      ---
              STO-SS =           0.0000                STO-SS =           0.0000     STORAGE                          
      CSUB-CGELASTIC =           0.0000        CSUB-CGELASTIC =           0.0000     CSUB                             
        CSUB-ELASTIC =           0.1008          CSUB-ELASTIC =       4.5599E-10     CSUB                             
      CSUB-INELASTIC =           0.7840        CSUB-INELASTIC =       3.3244E-03     CSUB                             
      CSUB-WATERCOMP =           0.0000        CSUB-WATERCOMP =           0.0000     CSUB                             
                 CHD =           0.0000                   CHD =           0.0000     CHD_0                            

            TOTAL IN =           0.8848              TOTAL IN =       3.3244E-03

          OUT:                                     OUT:
          ----                                     ----
              STO-SS =           0.0000                STO-SS =           0.0000     STORAGE                          
      CSUB-CGELASTIC =           0.0000        CSUB-CGELASTIC =           0.0000     CSUB                             
        CSUB-ELASTIC =           0.0000          CSUB-ELASTIC =           0.0000     CSUB                             
      CSUB-INELASTIC =           0.0000        CSUB-INELASTIC =           0.0000     CSUB                             
      CSUB-WATERCOMP =           0.0000        CSUB-WATERCOMP =           0.0000     CSUB                             
                 CHD =           0.8848                   CHD =       3.3244E-03     CHD_0                            

           TOTAL OUT =           0.8848             TOTAL OUT =       3.3244E-03

            IN - OUT =       1.1358E-07              IN - OUT =       6.6361E-10

 PERCENT DISCREPANCY =           0.00     PERCENT DISCREPANCY =           0.00




         TIME SUMMARY AT END OF TIME STEP   59 IN STRESS PERIOD    1
                    SECONDS     MINUTES      HOURS       DAYS        YEARS
                    -----------------------------------------------------------
   TIME STEP LENGTH 5.60852E+05  9347.5      155.79      6.4913     1.77723E-02
 STRESS PERIOD TIME 1.11158E+07 1.85264E+05  3087.7      128.66     0.35224    
         TOTAL TIME 1.11158E+07 1.85264E+05  3087.7      128.66     0.35224    


end timestep


start timestep kper="1" kstp="60" mode="normal"



  VOLUME BUDGET FOR ENTIRE MODEL AT END OF TIME STEP   60, STRESS PERIOD   1
  ---------------------------------------------------------------------------------------------------

     CUMULATIVE VOLUME      L**3       RATES FOR THIS TIME STEP      L**3/T          PACKAGE NAME    
     ------------------                 ------------------------                     ----------------

           IN:                                      IN:
           ---                                      ---
              STO-SS =           0.0000                STO-SS =           0.0000     STORAGE                          
      CSUB-CGELASTIC =           0.0000        CSUB-CGELASTIC =           0.0000     CSUB                             
        CSUB-ELASTIC =           0.1008          CSUB-ELASTIC =       1.0368E-10     CSUB                             
      CSUB-INELASTIC =           0.8060        CSUB-INELASTIC =       3.2345E-03     CSUB                             
      CSUB-WATERCOMP =           0.0000        CSUB-WATERCOMP =           0.0000     CSUB                             
                 CHD =           0.0000                   CHD =           0.0000     CHD_0                            

            TOTAL IN =           0.9068              TOTAL IN =       3.2345E-03

          OUT:                                     OUT:
          ----                                     ----
              STO-SS =           0.0000                STO-SS =           0.0000     STORAGE                          
      CSUB-CGELASTIC =           0.0000        CSUB-CGELASTIC =           0.0000     CSUB                             
        CSUB-ELASTIC =           0.0000          CSUB-ELASTIC =           0.0000     CSUB                             
      CSUB-INELASTIC =           0.0000        CSUB-INELASTIC =           0.0000     CSUB                             
      CSUB-WATERCOMP =           0.0000        CSUB-WATERCOMP =           0.0000     CSUB                             
                 CHD =           0.9068                   CHD =       3.2345E-03     CHD_0                            

           TOTAL OUT =           0.9068             TOTAL OUT =       3.2345E-03

            IN - OUT =       1.1826E-07              IN - OUT =       6.8613E-10

 PERCENT DISCREPANCY =           0.00     PERCENT DISCREPANCY =           0.00




         TIME SUMMARY AT END OF TIME STEP   60 IN STRESS PERIOD    1
                    SECONDS     MINUTES      HOURS       DAYS        YEARS
                    -----------------------------------------------------------
   TIME STEP LENGTH 5.88895E+05  9814.9      163.58      6.8159     1.86609E-02
 STRESS PERIOD TIME 1.17047E+07 1.95079E+05  3251.3      135.47     0.37090    
         TOTAL TIME 1.17047E+07 1.95079E+05  3251.3      135.47     0.37090    


end timestep


start timestep kper="1" kstp="61" mode="normal"



  VOLUME BUDGET FOR ENTIRE MODEL AT END OF TIME STEP   61, STRESS PERIOD   1
  ---------------------------------------------------------------------------------------------------

     CUMULATIVE VOLUME      L**3       RATES FOR THIS TIME STEP      L**3/T          PACKAGE NAME    
     ------------------                 ------------------------                     ----------------

           IN:                                      IN:
           ---                                      ---
              STO-SS =           0.0000                STO-SS =           0.0000     STORAGE                          
      CSUB-CGELASTIC =           0.0000        CSUB-CGELASTIC =           0.0000     CSUB                             
        CSUB-ELASTIC =           0.1008          CSUB-ELASTIC =       1.8716E-11     CSUB                             
      CSUB-INELASTIC =           0.8285        CSUB-INELASTIC =       3.1475E-03     CSUB                             
      CSUB-WATERCOMP =           0.0000        CSUB-WATERCOMP =           0.0000     CSUB                             
                 CHD =           0.0000                   CHD =           0.0000     CHD_0                            

            TOTAL IN =           0.9294              TOTAL IN =       3.1475E-03

          OUT:                                     OUT:
          ----                                     ----
              STO-SS =           0.0000                STO-SS =           0.0000     STORAGE                          
      CSUB-CGELASTIC =           0.0000        CSUB-CGELASTIC =           0.0000     CSUB                             
        CSUB-ELASTIC =           0.0000          CSUB-ELASTIC =           0.0000     CSUB                             
      CSUB-INELASTIC =           0.0000        CSUB-INELASTIC =           0.0000     CSUB                             
      CSUB-WATERCOMP =           0.0000        CSUB-WATERCOMP =           0.0000     CSUB                             
                 CHD =           0.9294                   CHD =       3.1475E-03     CHD_0                            

           TOTAL OUT =           0.9294             TOTAL OUT =       3.1475E-03

            IN - OUT =       1.2335E-07              IN - OUT =       7.1224E-10

 PERCENT DISCREPANCY =           0.00     PERCENT DISCREPANCY =           0.00




         TIME SUMMARY AT END OF TIME STEP   61 IN STRESS PERIOD    1
                    SECONDS     MINUTES      HOURS       DAYS        YEARS
                    -----------------------------------------------------------
   TIME STEP LENGTH 6.18340E+05  10306.      171.76      7.1567     1.95940E-02
 STRESS PERIOD TIME 1.23231E+07 2.05384E+05  3423.1      142.63     0.39049    
         TOTAL TIME 1.23231E+07 2.05384E+05  3423.1      142.63     0.39049    


end timestep


start timestep kper="1" kstp="62" mode="normal"



  VOLUME BUDGET FOR ENTIRE MODEL AT END OF TIME STEP   62, STRESS PERIOD   1
  ---------------------------------------------------------------------------------------------------

     CUMULATIVE VOLUME      L**3       RATES FOR THIS TIME STEP      L**3/T          PACKAGE NAME    
     ------------------                 ------------------------                     ----------------

           IN:                                      IN:
           ---                                      ---
              STO-SS =           0.0000                STO-SS =           0.0000     STORAGE                          
      CSUB-CGELASTIC =           0.0000        CSUB-CGELASTIC =           0.0000     CSUB                             
        CSUB-ELASTIC =           0.1008          CSUB-ELASTIC =       2.4870E-12     CSUB                             
      CSUB-INELASTIC =           0.8516        CSUB-INELASTIC =       3.0632E-03     CSUB                             
      CSUB-WATERCOMP =           0.0000        CSUB-WATERCOMP =           0.0000     CSUB                             
                 CHD =           0.0000                   CHD =           0.0000     CHD_0                            

            TOTAL IN =           0.9524              TOTAL IN =       3.0632E-03

          OUT:                                     OUT:
          ----                                     ----
              STO-SS =           0.0000                STO-SS =           0.0000     STORAGE                          
      CSUB-CGELASTIC =           0.0000        CSUB-CGELASTIC =           0.0000     CSUB                             
        CSUB-ELASTIC =           0.0000          CSUB-ELASTIC =           0.0000     CSUB                             
      CSUB-INELASTIC =           0.0000        CSUB-INELASTIC =           0.0000     CSUB                             
      CSUB-WATERCOMP =           0.0000        CSUB-WATERCOMP =           0.0000     CSUB                             
                 CHD =           0.9524                   CHD =       3.0632E-03     CHD_0                            

           TOTAL OUT =           0.9524             TOTAL OUT =       3.0632E-03

            IN - OUT =       1.2888E-07              IN - OUT =       7.3579E-10

 PERCENT DISCREPANCY =           0.00     PERCENT DISCREPANCY =           0.00




         TIME SUMMARY AT END OF TIME STEP   62 IN STRESS PERIOD    1
                    SECONDS     MINUTES      HOURS       DAYS        YEARS
                    -----------------------------------------------------------
   TIME STEP LENGTH 6.49256E+05  10821.      180.35      7.5145     2.05737E-02
 STRESS PERIOD TIME 1.29723E+07 2.16205E+05  3603.4      150.14     0.41107    
         TOTAL TIME 1.29723E+07 2.16205E+05  3603.4      150.14     0.41107    


end timestep


start timestep kper="1" kstp="63" mode="normal"



  VOLUME BUDGET FOR ENTIRE MODEL AT END OF TIME STEP   63, STRESS PERIOD   1
  ---------------------------------------------------------------------------------------------------

     CUMULATIVE VOLUME      L**3       RATES FOR THIS TIME STEP      L**3/T          PACKAGE NAME    
     ------------------                 ------------------------                     ----------------

           IN:                                      IN:
           ---                                      ---
              STO-SS =           0.0000                STO-SS =           0.0000     STORAGE                          
      CSUB-CGELASTIC =           0.0000        CSUB-CGELASTIC =           0.0000     CSUB                             
        CSUB-ELASTIC =           0.1008          CSUB-ELASTIC =       2.1423E-13     CSUB                             
      CSUB-INELASTIC =           0.8751        CSUB-INELASTIC =       2.9815E-03     CSUB                             
      CSUB-WATERCOMP =           0.0000        CSUB-WATERCOMP =           0.0000     CSUB                             
                 CHD =           0.0000                   CHD =           0.0000     CHD_0                            

            TOTAL IN =           0.9759              TOTAL IN =       2.9815E-03

          OUT:                                     OUT:
          ----                                     ----
              STO-SS =           0.0000                STO-SS =           0.0000     STORAGE                          
      CSUB-CGELASTIC =           0.0000        CSUB-CGELASTIC =           0.0000     CSUB                             
        CSUB-ELASTIC =           0.0000          CSUB-ELASTIC =           0.0000     CSUB                             
      CSUB-INELASTIC =           0.0000        CSUB-INELASTIC =           0.0000     CSUB                             
      CSUB-WATERCOMP =           0.0000        CSUB-WATERCOMP =           0.0000     CSUB                             
                 CHD =           0.9759                   CHD =       2.9815E-03     CHD_0                            

           TOTAL OUT =           0.9759             TOTAL OUT =       2.9815E-03

            IN - OUT =       1.3488E-07              IN - OUT =       7.5971E-10

 PERCENT DISCREPANCY =           0.00     PERCENT DISCREPANCY =           0.00




         TIME SUMMARY AT END OF TIME STEP   63 IN STRESS PERIOD    1
                    SECONDS     MINUTES      HOURS       DAYS        YEARS
                    -----------------------------------------------------------
   TIME STEP LENGTH 6.81719E+05  11362.      189.37      7.8903     2.16024E-02
 STRESS PERIOD TIME 1.36540E+07 2.27567E+05  3792.8      158.03     0.43267    
         TOTAL TIME 1.36540E+07 2.27567E+05  3792.8      158.03     0.43267    


end timestep


start timestep kper="1" kstp="64" mode="normal"



  VOLUME BUDGET FOR ENTIRE MODEL AT END OF TIME STEP   64, STRESS PERIOD   1
  ---------------------------------------------------------------------------------------------------

     CUMULATIVE VOLUME      L**3       RATES FOR THIS TIME STEP      L**3/T          PACKAGE NAME    
     ------------------                 ------------------------                     ----------------

           IN:                                      IN:
           ---                                      ---
              STO-SS =           0.0000                STO-SS =           0.0000     STORAGE                          
      CSUB-CGELASTIC =           0.0000        CSUB-CGELASTIC =           0.0000     CSUB                             
        CSUB-ELASTIC =           0.1008          CSUB-ELASTIC =       9.3036E-15     CSUB                             
      CSUB-INELASTIC =           0.8991        CSUB-INELASTIC =       2.9024E-03     CSUB                             
      CSUB-WATERCOMP =           0.0000        CSUB-WATERCOMP =           0.0000     CSUB                             
                 CHD =           0.0000                   CHD =           0.0000     CHD_0                            

            TOTAL IN =           1.0000              TOTAL IN =       2.9024E-03

          OUT:                                     OUT:
          ----                                     ----
              STO-SS =           0.0000                STO-SS =           0.0000     STORAGE                          
      CSUB-CGELASTIC =           0.0000        CSUB-CGELASTIC =           0.0000     CSUB                             
        CSUB-ELASTIC =           0.0000          CSUB-ELASTIC =           0.0000     CSUB                             
      CSUB-INELASTIC =           0.0000        CSUB-INELASTIC =           0.0000     CSUB                             
      CSUB-WATERCOMP =           0.0000        CSUB-WATERCOMP =           0.0000     CSUB                             
                 CHD =           1.0000                   CHD =       2.9024E-03     CHD_0                            

           TOTAL OUT =           1.0000             TOTAL OUT =       2.9024E-03

            IN - OUT =       1.4137E-07              IN - OUT =       7.8400E-10

 PERCENT DISCREPANCY =           0.00     PERCENT DISCREPANCY =           0.00




         TIME SUMMARY AT END OF TIME STEP   64 IN STRESS PERIOD    1
                    SECONDS     MINUTES      HOURS       DAYS        YEARS
                    -----------------------------------------------------------
   TIME STEP LENGTH 7.15805E+05  11930.      198.83      8.2848     2.26825E-02
 STRESS PERIOD TIME 1.43698E+07 2.39497E+05  3991.6      166.32     0.45535    
         TOTAL TIME 1.43698E+07 2.39497E+05  3991.6      166.32     0.45535    


end timestep


start timestep kper="1" kstp="65" mode="normal"



  VOLUME BUDGET FOR ENTIRE MODEL AT END OF TIME STEP   65, STRESS PERIOD   1
  ---------------------------------------------------------------------------------------------------

     CUMULATIVE VOLUME      L**3       RATES FOR THIS TIME STEP      L**3/T          PACKAGE NAME    
     ------------------                 ------------------------                     ----------------

           IN:                                      IN:
           ---                                      ---
              STO-SS =           0.0000                STO-SS =           0.0000     STORAGE                          
      CSUB-CGELASTIC =           0.0000        CSUB-CGELASTIC =           0.0000     CSUB                             
        CSUB-ELASTIC =           0.1008          CSUB-ELASTIC =       1.0029E-16     CSUB                             
      CSUB-INELASTIC =           0.9237        CSUB-INELASTIC =       2.8256E-03     CSUB                             
      CSUB-WATERCOMP =           0.0000        CSUB-WATERCOMP =           0.0000     CSUB                             
                 CHD =           0.0000                   CHD =           0.0000     CHD_0                            

            TOTAL IN =           1.0245              TOTAL IN =       2.8256E-03

          OUT:                                     OUT:
          ----                                     ----
              STO-SS =           0.0000                STO-SS =           0.0000     STORAGE                          
      CSUB-CGELASTIC =           0.0000        CSUB-CGELASTIC =           0.0000     CSUB                             
        CSUB-ELASTIC =           0.0000          CSUB-ELASTIC =           0.0000     CSUB                             
      CSUB-INELASTIC =           0.0000        CSUB-INELASTIC =           0.0000     CSUB                             
      CSUB-WATERCOMP =           0.0000        CSUB-WATERCOMP =           0.0000     CSUB                             
                 CHD =           1.0245                   CHD =       2.8256E-03     CHD_0                            

           TOTAL OUT =           1.0245             TOTAL OUT =       2.8256E-03

            IN - OUT =       1.4841E-07              IN - OUT =       8.0864E-10

 PERCENT DISCREPANCY =           0.00     PERCENT DISCREPANCY =           0.00




         TIME SUMMARY AT END OF TIME STEP   65 IN STRESS PERIOD    1
                    SECONDS     MINUTES      HOURS       DAYS        YEARS
                    -----------------------------------------------------------
   TIME STEP LENGTH 7.51596E+05  12527.      208.78      8.6990     2.38166E-02
 STRESS PERIOD TIME 1.51214E+07 2.52024E+05  4200.4      175.02     0.47917    
         TOTAL TIME 1.51214E+07 2.52024E+05  4200.4      175.02     0.47917    


end timestep


start timestep kper="1" kstp="66" mode="normal"



  VOLUME BUDGET FOR ENTIRE MODEL AT END OF TIME STEP   66, STRESS PERIOD   1
  ---------------------------------------------------------------------------------------------------

     CUMULATIVE VOLUME      L**3       RATES FOR THIS TIME STEP      L**3/T          PACKAGE NAME    
     ------------------                 ------------------------                     ----------------

           IN:                                      IN:
           ---                                      ---
              STO-SS =           0.0000                STO-SS =           0.0000     STORAGE                          
      CSUB-CGELASTIC =           0.0000        CSUB-CGELASTIC =           0.0000     CSUB                             
        CSUB-ELASTIC =           0.1008          CSUB-ELASTIC =           0.0000     CSUB                             
      CSUB-INELASTIC =           0.9488        CSUB-INELASTIC =       2.7512E-03     CSUB                             
      CSUB-WATERCOMP =           0.0000        CSUB-WATERCOMP =           0.0000     CSUB                             
                 CHD =           0.0000                   CHD =           0.0000     CHD_0                            

            TOTAL IN =           1.0497              TOTAL IN =       2.7512E-03

          OUT:                                     OUT:
          ----                                     ----
              STO-SS =           0.0000                STO-SS =           0.0000     STORAGE                          
      CSUB-CGELASTIC =           0.0000        CSUB-CGELASTIC =           0.0000     CSUB                             
        CSUB-ELASTIC =           0.0000          CSUB-ELASTIC =           0.0000     CSUB                             
      CSUB-INELASTIC =           0.0000        CSUB-INELASTIC =           0.0000     CSUB                             
      CSUB-WATERCOMP =           0.0000        CSUB-WATERCOMP =           0.0000     CSUB                             
                 CHD =           1.0497                   CHD =       2.7512E-03     CHD_0                            

           TOTAL OUT =           1.0497             TOTAL OUT =       2.7512E-03

            IN - OUT =       1.5602E-07              IN - OUT =       8.3365E-10

 PERCENT DISCREPANCY =           0.00     PERCENT DISCREPANCY =           0.00




         TIME SUMMARY AT END OF TIME STEP   66 IN STRESS PERIOD    1
                    SECONDS     MINUTES      HOURS       DAYS        YEARS
                    -----------------------------------------------------------
   TIME STEP LENGTH 7.89175E+05  13153.      219.22      9.1340     2.50075E-02
 STRESS PERIOD TIME 1.59106E+07 2.65177E+05  4419.6      184.15     0.50418    
         TOTAL TIME 1.59106E+07 2.65177E+05  4419.6      184.15     0.50418    


end timestep


start timestep kper="1" kstp="67" mode="normal"



  VOLUME BUDGET FOR ENTIRE MODEL AT END OF TIME STEP   67, STRESS PERIOD   1
  ---------------------------------------------------------------------------------------------------

     CUMULATIVE VOLUME      L**3       RATES FOR THIS TIME STEP      L**3/T          PACKAGE NAME    
     ------------------                 ------------------------                     ----------------

           IN:                                      IN:
           ---                                      ---
              STO-SS =           0.0000                STO-SS =           0.0000     STORAGE                          
      CSUB-CGELASTIC =           0.0000        CSUB-CGELASTIC =           0.0000     CSUB                             
        CSUB-ELASTIC =           0.1008          CSUB-ELASTIC =           0.0000     CSUB                             
      CSUB-INELASTIC =           0.9745        CSUB-INELASTIC =       2.6791E-03     CSUB                             
      CSUB-WATERCOMP =           0.0000        CSUB-WATERCOMP =           0.0000     CSUB                             
                 CHD =           0.0000                   CHD =           0.0000     CHD_0                            

            TOTAL IN =           1.0754              TOTAL IN =       2.6791E-03

          OUT:                                     OUT:
          ----                                     ----
              STO-SS =           0.0000                STO-SS =           0.0000     STORAGE                          
      CSUB-CGELASTIC =           0.0000        CSUB-CGELASTIC =           0.0000     CSUB                             
        CSUB-ELASTIC =           0.0000          CSUB-ELASTIC =           0.0000     CSUB                             
      CSUB-INELASTIC =           0.0000        CSUB-INELASTIC =           0.0000     CSUB                             
      CSUB-WATERCOMP =           0.0000        CSUB-WATERCOMP =           0.0000     CSUB                             
                 CHD =           1.0754                   CHD =       2.6791E-03     CHD_0                            

           TOTAL OUT =           1.0754             TOTAL OUT =       2.6791E-03

            IN - OUT =       1.6426E-07              IN - OUT =       8.5900E-10

 PERCENT DISCREPANCY =           0.00     PERCENT DISCREPANCY =           0.00




         TIME SUMMARY AT END OF TIME STEP   67 IN STRESS PERIOD    1
                    SECONDS     MINUTES      HOURS       DAYS        YEARS
                    -----------------------------------------------------------
   TIME STEP LENGTH 8.28634E+05  13811.      230.18      9.5907     2.62578E-02
 STRESS PERIOD TIME 1.67393E+07 2.78988E+05  4649.8      193.74     0.53043    
         TOTAL TIME 1.67393E+07 2.78988E+05  4649.8      193.74     0.53043    


end timestep


start timestep kper="1" kstp="68" mode="normal"



  VOLUME BUDGET FOR ENTIRE MODEL AT END OF TIME STEP   68, STRESS PERIOD   1
  ---------------------------------------------------------------------------------------------------

     CUMULATIVE VOLUME      L**3       RATES FOR THIS TIME STEP      L**3/T          PACKAGE NAME    
     ------------------                 ------------------------                     ----------------

           IN:                                      IN:
           ---                                      ---
              STO-SS =           0.0000                STO-SS =           0.0000     STORAGE                          
      CSUB-CGELASTIC =           0.0000        CSUB-CGELASTIC =           0.0000     CSUB                             
        CSUB-ELASTIC =           0.1008          CSUB-ELASTIC =           0.0000     CSUB                             
      CSUB-INELASTIC =           1.0008        CSUB-INELASTIC =       2.6090E-03     CSUB                             
      CSUB-WATERCOMP =           0.0000        CSUB-WATERCOMP =           0.0000     CSUB                             
                 CHD =           0.0000                   CHD =           0.0000     CHD_0                            

            TOTAL IN =           1.1016              TOTAL IN =       2.6090E-03

          OUT:                                     OUT:
          ----                                     ----
              STO-SS =           0.0000                STO-SS =           0.0000     STORAGE                          
      CSUB-CGELASTIC =           0.0000        CSUB-CGELASTIC =           0.0000     CSUB                             
        CSUB-ELASTIC =           0.0000          CSUB-ELASTIC =           0.0000     CSUB                             
      CSUB-INELASTIC =           0.0000        CSUB-INELASTIC =           0.0000     CSUB                             
      CSUB-WATERCOMP =           0.0000        CSUB-WATERCOMP =           0.0000     CSUB                             
                 CHD =           1.1016                   CHD =       2.6090E-03     CHD_0                            

           TOTAL OUT =           1.1016             TOTAL OUT =       2.6090E-03

            IN - OUT =       1.7317E-07              IN - OUT =       8.8470E-10

 PERCENT DISCREPANCY =           0.00     PERCENT DISCREPANCY =           0.00




         TIME SUMMARY AT END OF TIME STEP   68 IN STRESS PERIOD    1
                    SECONDS     MINUTES      HOURS       DAYS        YEARS
                    -----------------------------------------------------------
   TIME STEP LENGTH 8.70066E+05  14501.      241.68      10.070     2.75707E-02
 STRESS PERIOD TIME 1.76093E+07 2.93489E+05  4891.5      203.81     0.55801    
         TOTAL TIME 1.76093E+07 2.93489E+05  4891.5      203.81     0.55801    


end timestep


start timestep kper="1" kstp="69" mode="normal"



  VOLUME BUDGET FOR ENTIRE MODEL AT END OF TIME STEP   69, STRESS PERIOD   1
  ---------------------------------------------------------------------------------------------------

     CUMULATIVE VOLUME      L**3       RATES FOR THIS TIME STEP      L**3/T          PACKAGE NAME    
     ------------------                 ------------------------                     ----------------

           IN:                                      IN:
           ---                                      ---
              STO-SS =           0.0000                STO-SS =           0.0000     STORAGE                          
      CSUB-CGELASTIC =           0.0000        CSUB-CGELASTIC =           0.0000     CSUB                             
        CSUB-ELASTIC =           0.1008          CSUB-ELASTIC =           0.0000     CSUB                             
      CSUB-INELASTIC =           1.0277        CSUB-INELASTIC =       2.5411E-03     CSUB                             
      CSUB-WATERCOMP =           0.0000        CSUB-WATERCOMP =           0.0000     CSUB                             
                 CHD =           0.0000                   CHD =           0.0000     CHD_0                            

            TOTAL IN =           1.1285              TOTAL IN =       2.5411E-03

          OUT:                                     OUT:
          ----                                     ----
              STO-SS =           0.0000                STO-SS =           0.0000     STORAGE                          
      CSUB-CGELASTIC =           0.0000        CSUB-CGELASTIC =           0.0000     CSUB                             
        CSUB-ELASTIC =           0.0000          CSUB-ELASTIC =           0.0000     CSUB                             
      CSUB-INELASTIC =           0.0000        CSUB-INELASTIC =           0.0000     CSUB                             
      CSUB-WATERCOMP =           0.0000        CSUB-WATERCOMP =           0.0000     CSUB                             
                 CHD =           1.1285                   CHD =       2.5411E-03     CHD_0                            

           TOTAL OUT =           1.1285             TOTAL OUT =       2.5411E-03

            IN - OUT =       1.8280E-07              IN - OUT =       9.1075E-10

 PERCENT DISCREPANCY =           0.00     PERCENT DISCREPANCY =           0.00




         TIME SUMMARY AT END OF TIME STEP   69 IN STRESS PERIOD    1
                    SECONDS     MINUTES      HOURS       DAYS        YEARS
                    -----------------------------------------------------------
   TIME STEP LENGTH 9.13569E+05  15226.      253.77      10.574     2.89493E-02
 STRESS PERIOD TIME 1.85229E+07 3.08715E+05  5145.2      214.39     0.58695    
         TOTAL TIME 1.85229E+07 3.08715E+05  5145.2      214.39     0.58695    


end timestep


start timestep kper="1" kstp="70" mode="normal"



  VOLUME BUDGET FOR ENTIRE MODEL AT END OF TIME STEP   70, STRESS PERIOD   1
  ---------------------------------------------------------------------------------------------------

     CUMULATIVE VOLUME      L**3       RATES FOR THIS TIME STEP      L**3/T          PACKAGE NAME    
     ------------------                 ------------------------                     ----------------

           IN:                                      IN:
           ---                                      ---
              STO-SS =           0.0000                STO-SS =           0.0000     STORAGE                          
      CSUB-CGELASTIC =           0.0000        CSUB-CGELASTIC =           0.0000     CSUB                             
        CSUB-ELASTIC =           0.1008          CSUB-ELASTIC =           0.0000     CSUB                             
      CSUB-INELASTIC =           1.0552        CSUB-INELASTIC =       2.4751E-03     CSUB                             
      CSUB-WATERCOMP =           0.0000        CSUB-WATERCOMP =           0.0000     CSUB                             
                 CHD =           0.0000                   CHD =           0.0000     CHD_0                            

            TOTAL IN =           1.1560              TOTAL IN =       2.4751E-03

          OUT:                                     OUT:
          ----                                     ----
              STO-SS =           0.0000                STO-SS =           0.0000     STORAGE                          
      CSUB-CGELASTIC =           0.0000        CSUB-CGELASTIC =           0.0000     CSUB                             
        CSUB-ELASTIC =           0.0000          CSUB-ELASTIC =           0.0000     CSUB                             
      CSUB-INELASTIC =           0.0000        CSUB-INELASTIC =           0.0000     CSUB                             
      CSUB-WATERCOMP =           0.0000        CSUB-WATERCOMP =           0.0000     CSUB                             
                 CHD =           1.1560                   CHD =       2.4751E-03     CHD_0                            

           TOTAL OUT =           1.1560             TOTAL OUT =       2.4751E-03

            IN - OUT =       1.9320E-07              IN - OUT =       9.3714E-10

 PERCENT DISCREPANCY =           0.00     PERCENT DISCREPANCY =           0.00




         TIME SUMMARY AT END OF TIME STEP   70 IN STRESS PERIOD    1
                    SECONDS     MINUTES      HOURS       DAYS        YEARS
                    -----------------------------------------------------------
   TIME STEP LENGTH 9.59248E+05  15987.      266.46      11.102     3.03967E-02
 STRESS PERIOD TIME 1.94821E+07 3.24702E+05  5411.7      225.49     0.61735    
         TOTAL TIME 1.94821E+07 3.24702E+05  5411.7      225.49     0.61735    


end timestep


start timestep kper="1" kstp="71" mode="normal"



  VOLUME BUDGET FOR ENTIRE MODEL AT END OF TIME STEP   71, STRESS PERIOD   1
  ---------------------------------------------------------------------------------------------------

     CUMULATIVE VOLUME      L**3       RATES FOR THIS TIME STEP      L**3/T          PACKAGE NAME    
     ------------------                 ------------------------                     ----------------

           IN:                                      IN:
           ---                                      ---
              STO-SS =           0.0000                STO-SS =           0.0000     STORAGE                          
      CSUB-CGELASTIC =           0.0000        CSUB-CGELASTIC =           0.0000     CSUB                             
        CSUB-ELASTIC =           0.1008          CSUB-ELASTIC =           0.0000     CSUB                             
      CSUB-INELASTIC =           1.0833        CSUB-INELASTIC =       2.4111E-03     CSUB                             
      CSUB-WATERCOMP =           0.0000        CSUB-WATERCOMP =           0.0000     CSUB                             
                 CHD =           0.0000                   CHD =           0.0000     CHD_0                            

            TOTAL IN =           1.1841              TOTAL IN =       2.4111E-03

          OUT:                                     OUT:
          ----                                     ----
              STO-SS =           0.0000                STO-SS =           0.0000     STORAGE                          
      CSUB-CGELASTIC =           0.0000        CSUB-CGELASTIC =           0.0000     CSUB                             
        CSUB-ELASTIC =           0.0000          CSUB-ELASTIC =           0.0000     CSUB                             
      CSUB-INELASTIC =           0.0000        CSUB-INELASTIC =           0.0000     CSUB                             
      CSUB-WATERCOMP =           0.0000        CSUB-WATERCOMP =           0.0000     CSUB                             
                 CHD =           1.1841                   CHD =       2.4111E-03     CHD_0                            

           TOTAL OUT =           1.1841             TOTAL OUT =       2.4111E-03

            IN - OUT =       2.0444E-07              IN - OUT =       9.6386E-10

 PERCENT DISCREPANCY =           0.00     PERCENT DISCREPANCY =           0.00




         TIME SUMMARY AT END OF TIME STEP   71 IN STRESS PERIOD    1
                    SECONDS     MINUTES      HOURS       DAYS        YEARS
                    -----------------------------------------------------------
   TIME STEP LENGTH 1.00721E+06  16787.      279.78      11.658     3.19166E-02
 STRESS PERIOD TIME 2.04893E+07 3.41489E+05  5691.5      237.15     0.64927    
         TOTAL TIME 2.04893E+07 3.41489E+05  5691.5      237.15     0.64927    


end timestep


start timestep kper="1" kstp="72" mode="normal"



  VOLUME BUDGET FOR ENTIRE MODEL AT END OF TIME STEP   72, STRESS PERIOD   1
  ---------------------------------------------------------------------------------------------------

     CUMULATIVE VOLUME      L**3       RATES FOR THIS TIME STEP      L**3/T          PACKAGE NAME    
     ------------------                 ------------------------                     ----------------

           IN:                                      IN:
           ---                                      ---
              STO-SS =           0.0000                STO-SS =           0.0000     STORAGE                          
      CSUB-CGELASTIC =           0.0000        CSUB-CGELASTIC =           0.0000     CSUB                             
        CSUB-ELASTIC =           0.1008          CSUB-ELASTIC =           0.0000     CSUB                             
      CSUB-INELASTIC =           1.1120        CSUB-INELASTIC =       2.3489E-03     CSUB                             
      CSUB-WATERCOMP =           0.0000        CSUB-WATERCOMP =           0.0000     CSUB                             
                 CHD =           0.0000                   CHD =           0.0000     CHD_0                            

            TOTAL IN =           1.2128              TOTAL IN =       2.3489E-03

          OUT:                                     OUT:
          ----                                     ----
              STO-SS =           0.0000                STO-SS =           0.0000     STORAGE                          
      CSUB-CGELASTIC =           0.0000        CSUB-CGELASTIC =           0.0000     CSUB                             
        CSUB-ELASTIC =           0.0000          CSUB-ELASTIC =           0.0000     CSUB                             
      CSUB-INELASTIC =           0.0000        CSUB-INELASTIC =           0.0000     CSUB                             
      CSUB-WATERCOMP =           0.0000        CSUB-WATERCOMP =           0.0000     CSUB                             
                 CHD =           1.2128                   CHD =       2.3489E-03     CHD_0                            

           TOTAL OUT =           1.2128             TOTAL OUT =       2.3489E-03

            IN - OUT =       2.1657E-07              IN - OUT =       9.9092E-10

 PERCENT DISCREPANCY =           0.00     PERCENT DISCREPANCY =           0.00




         TIME SUMMARY AT END OF TIME STEP   72 IN STRESS PERIOD    1
                    SECONDS     MINUTES      HOURS       DAYS        YEARS
                    -----------------------------------------------------------
   TIME STEP LENGTH 1.05757E+06  17626.      293.77      12.240     3.35124E-02
 STRESS PERIOD TIME 2.15469E+07 3.59115E+05  5985.3      249.39     0.68278    
         TOTAL TIME 2.15469E+07 3.59115E+05  5985.3      249.39     0.68278    


end timestep


start timestep kper="1" kstp="73" mode="normal"



  VOLUME BUDGET FOR ENTIRE MODEL AT END OF TIME STEP   73, STRESS PERIOD   1
  ---------------------------------------------------------------------------------------------------

     CUMULATIVE VOLUME      L**3       RATES FOR THIS TIME STEP      L**3/T          PACKAGE NAME    
     ------------------                 ------------------------                     ----------------

           IN:                                      IN:
           ---                                      ---
              STO-SS =           0.0000                STO-SS =           0.0000     STORAGE                          
      CSUB-CGELASTIC =           0.0000        CSUB-CGELASTIC =           0.0000     CSUB                             
        CSUB-ELASTIC =           0.1008          CSUB-ELASTIC =           0.0000     CSUB                             
      CSUB-INELASTIC =           1.1414        CSUB-INELASTIC =       2.2885E-03     CSUB                             
      CSUB-WATERCOMP =           0.0000        CSUB-WATERCOMP =           0.0000     CSUB                             
                 CHD =           0.0000                   CHD =           0.0000     CHD_0                            

            TOTAL IN =           1.2423              TOTAL IN =       2.2885E-03

          OUT:                                     OUT:
          ----                                     ----
              STO-SS =           0.0000                STO-SS =           0.0000     STORAGE                          
      CSUB-CGELASTIC =           0.0000        CSUB-CGELASTIC =           0.0000     CSUB                             
        CSUB-ELASTIC =           0.0000          CSUB-ELASTIC =           0.0000     CSUB                             
      CSUB-INELASTIC =           0.0000        CSUB-INELASTIC =           0.0000     CSUB                             
      CSUB-WATERCOMP =           0.0000        CSUB-WATERCOMP =           0.0000     CSUB                             
                 CHD =           1.2422                   CHD =       2.2885E-03     CHD_0                            

           TOTAL OUT =           1.2422             TOTAL OUT =       2.2885E-03

            IN - OUT =       2.2966E-07              IN - OUT =       1.0183E-09

 PERCENT DISCREPANCY =           0.00     PERCENT DISCREPANCY =           0.00




         TIME SUMMARY AT END OF TIME STEP   73 IN STRESS PERIOD    1
                    SECONDS     MINUTES      HOURS       DAYS        YEARS
                    -----------------------------------------------------------
   TIME STEP LENGTH 1.11045E+06  18507.      308.46      12.852     3.51880E-02
 STRESS PERIOD TIME 2.26574E+07 3.77623E+05  6293.7      262.24     0.71797    
         TOTAL TIME 2.26574E+07 3.77623E+05  6293.7      262.24     0.71797    


end timestep


start timestep kper="1" kstp="74" mode="normal"



  VOLUME BUDGET FOR ENTIRE MODEL AT END OF TIME STEP   74, STRESS PERIOD   1
  ---------------------------------------------------------------------------------------------------

     CUMULATIVE VOLUME      L**3       RATES FOR THIS TIME STEP      L**3/T          PACKAGE NAME    
     ------------------                 ------------------------                     ----------------

           IN:                                      IN:
           ---                                      ---
              STO-SS =           0.0000                STO-SS =           0.0000     STORAGE                          
      CSUB-CGELASTIC =           0.0000        CSUB-CGELASTIC =           0.0000     CSUB                             
        CSUB-ELASTIC =           0.1008          CSUB-ELASTIC =           0.0000     CSUB                             
      CSUB-INELASTIC =           1.1715        CSUB-INELASTIC =       2.2298E-03     CSUB                             
      CSUB-WATERCOMP =           0.0000        CSUB-WATERCOMP =           0.0000     CSUB                             
                 CHD =           0.0000                   CHD =           0.0000     CHD_0                            

            TOTAL IN =           1.2723              TOTAL IN =       2.2298E-03

          OUT:                                     OUT:
          ----                                     ----
              STO-SS =           0.0000                STO-SS =           0.0000     STORAGE                          
      CSUB-CGELASTIC =           0.0000        CSUB-CGELASTIC =           0.0000     CSUB                             
        CSUB-ELASTIC =           0.0000          CSUB-ELASTIC =           0.0000     CSUB                             
      CSUB-INELASTIC =           0.0000        CSUB-INELASTIC =           0.0000     CSUB                             
      CSUB-WATERCOMP =           0.0000        CSUB-WATERCOMP =           0.0000     CSUB                             
                 CHD =           1.2723                   CHD =       2.2298E-03     CHD_0                            

           TOTAL OUT =           1.2723             TOTAL OUT =       2.2298E-03

            IN - OUT =       2.4377E-07              IN - OUT =       1.0460E-09

 PERCENT DISCREPANCY =           0.00     PERCENT DISCREPANCY =           0.00




         TIME SUMMARY AT END OF TIME STEP   74 IN STRESS PERIOD    1
                    SECONDS     MINUTES      HOURS       DAYS        YEARS
                    -----------------------------------------------------------
   TIME STEP LENGTH 1.16597E+06  19433.      323.88      13.495     3.69474E-02
 STRESS PERIOD TIME 2.38233E+07 3.97056E+05  6617.6      275.73     0.75492    
         TOTAL TIME 2.38233E+07 3.97056E+05  6617.6      275.73     0.75492    


end timestep


start timestep kper="1" kstp="75" mode="normal"



  VOLUME BUDGET FOR ENTIRE MODEL AT END OF TIME STEP   75, STRESS PERIOD   1
  ---------------------------------------------------------------------------------------------------

     CUMULATIVE VOLUME      L**3       RATES FOR THIS TIME STEP      L**3/T          PACKAGE NAME    
     ------------------                 ------------------------                     ----------------

           IN:                                      IN:
           ---                                      ---
              STO-SS =           0.0000                STO-SS =           0.0000     STORAGE                          
      CSUB-CGELASTIC =           0.0000        CSUB-CGELASTIC =           0.0000     CSUB                             
        CSUB-ELASTIC =           0.1008          CSUB-ELASTIC =           0.0000     CSUB                             
      CSUB-INELASTIC =           1.2023        CSUB-INELASTIC =       2.1728E-03     CSUB                             
      CSUB-WATERCOMP =           0.0000        CSUB-WATERCOMP =           0.0000     CSUB                             
                 CHD =           0.0000                   CHD =           0.0000     CHD_0                            

            TOTAL IN =           1.3031              TOTAL IN =       2.1728E-03

          OUT:                                     OUT:
          ----                                     ----
              STO-SS =           0.0000                STO-SS =           0.0000     STORAGE                          
      CSUB-CGELASTIC =           0.0000        CSUB-CGELASTIC =           0.0000     CSUB                             
        CSUB-ELASTIC =           0.0000          CSUB-ELASTIC =           0.0000     CSUB                             
      CSUB-INELASTIC =           0.0000        CSUB-INELASTIC =           0.0000     CSUB                             
      CSUB-WATERCOMP =           0.0000        CSUB-WATERCOMP =           0.0000     CSUB                             
                 CHD =           1.3031                   CHD =       2.1728E-03     CHD_0                            

           TOTAL OUT =           1.3031             TOTAL OUT =       2.1728E-03

            IN - OUT =       2.5899E-07              IN - OUT =       1.0741E-09

 PERCENT DISCREPANCY =           0.00     PERCENT DISCREPANCY =           0.00




         TIME SUMMARY AT END OF TIME STEP   75 IN STRESS PERIOD    1
                    SECONDS     MINUTES      HOURS       DAYS        YEARS
                    -----------------------------------------------------------
   TIME STEP LENGTH 1.22427E+06  20404.      340.07      14.170     3.87948E-02
 STRESS PERIOD TIME 2.50476E+07 4.17460E+05  6957.7      289.90     0.79371    
         TOTAL TIME 2.50476E+07 4.17460E+05  6957.7      289.90     0.79371    


end timestep


start timestep kper="1" kstp="76" mode="normal"



  VOLUME BUDGET FOR ENTIRE MODEL AT END OF TIME STEP   76, STRESS PERIOD   1
  ---------------------------------------------------------------------------------------------------

     CUMULATIVE VOLUME      L**3       RATES FOR THIS TIME STEP      L**3/T          PACKAGE NAME    
     ------------------                 ------------------------                     ----------------

           IN:                                      IN:
           ---                                      ---
              STO-SS =           0.0000                STO-SS =           0.0000     STORAGE                          
      CSUB-CGELASTIC =           0.0000        CSUB-CGELASTIC =           0.0000     CSUB                             
        CSUB-ELASTIC =           0.1008          CSUB-ELASTIC =           0.0000     CSUB                             
      CSUB-INELASTIC =           1.2338        CSUB-INELASTIC =       2.1174E-03     CSUB                             
      CSUB-WATERCOMP =           0.0000        CSUB-WATERCOMP =           0.0000     CSUB                             
                 CHD =           0.0000                   CHD =           0.0000     CHD_0                            

            TOTAL IN =           1.3346              TOTAL IN =       2.1174E-03

          OUT:                                     OUT:
          ----                                     ----
              STO-SS =           0.0000                STO-SS =           0.0000     STORAGE                          
      CSUB-CGELASTIC =           0.0000        CSUB-CGELASTIC =           0.0000     CSUB                             
        CSUB-ELASTIC =           0.0000          CSUB-ELASTIC =           0.0000     CSUB                             
      CSUB-INELASTIC =           0.0000        CSUB-INELASTIC =           0.0000     CSUB                             
      CSUB-WATERCOMP =           0.0000        CSUB-WATERCOMP =           0.0000     CSUB                             
                 CHD =           1.3346                   CHD =       2.1174E-03     CHD_0                            

           TOTAL OUT =           1.3346             TOTAL OUT =       2.1174E-03

            IN - OUT =       2.7540E-07              IN - OUT =       1.1025E-09

 PERCENT DISCREPANCY =           0.00     PERCENT DISCREPANCY =           0.00




         TIME SUMMARY AT END OF TIME STEP   76 IN STRESS PERIOD    1
                    SECONDS     MINUTES      HOURS       DAYS        YEARS
                    -----------------------------------------------------------
   TIME STEP LENGTH 1.28548E+06  21425.      357.08      14.878     4.07345E-02
 STRESS PERIOD TIME 2.63331E+07 4.38885E+05  7314.7      304.78     0.83445    
         TOTAL TIME 2.63331E+07 4.38885E+05  7314.7      304.78     0.83445    


end timestep


start timestep kper="1" kstp="77" mode="normal"



  VOLUME BUDGET FOR ENTIRE MODEL AT END OF TIME STEP   77, STRESS PERIOD   1
  ---------------------------------------------------------------------------------------------------

     CUMULATIVE VOLUME      L**3       RATES FOR THIS TIME STEP      L**3/T          PACKAGE NAME    
     ------------------                 ------------------------                     ----------------

           IN:                                      IN:
           ---                                      ---
              STO-SS =           0.0000                STO-SS =           0.0000     STORAGE                          
      CSUB-CGELASTIC =           0.0000        CSUB-CGELASTIC =           0.0000     CSUB                             
        CSUB-ELASTIC =           0.1008          CSUB-ELASTIC =           0.0000     CSUB                             
      CSUB-INELASTIC =           1.2661        CSUB-INELASTIC =       2.0636E-03     CSUB                             
      CSUB-WATERCOMP =           0.0000        CSUB-WATERCOMP =           0.0000     CSUB                             
                 CHD =           0.0000                   CHD =           0.0000     CHD_0                            

            TOTAL IN =           1.3669              TOTAL IN =       2.0636E-03

          OUT:                                     OUT:
          ----                                     ----
              STO-SS =           0.0000                STO-SS =           0.0000     STORAGE                          
      CSUB-CGELASTIC =           0.0000        CSUB-CGELASTIC =           0.0000     CSUB                             
        CSUB-ELASTIC =           0.0000          CSUB-ELASTIC =           0.0000     CSUB                             
      CSUB-INELASTIC =           0.0000        CSUB-INELASTIC =           0.0000     CSUB                             
      CSUB-WATERCOMP =           0.0000        CSUB-WATERCOMP =           0.0000     CSUB                             
                 CHD =           1.3669                   CHD =       2.0635E-03     CHD_0                            

           TOTAL OUT =           1.3669             TOTAL OUT =       2.0635E-03

            IN - OUT =       2.9307E-07              IN - OUT =       1.1312E-09

 PERCENT DISCREPANCY =           0.00     PERCENT DISCREPANCY =           0.00




         TIME SUMMARY AT END OF TIME STEP   77 IN STRESS PERIOD    1
                    SECONDS     MINUTES      HOURS       DAYS        YEARS
                    -----------------------------------------------------------
   TIME STEP LENGTH 1.34976E+06  22496.      374.93      15.622     4.27712E-02
 STRESS PERIOD TIME 2.76828E+07 4.61381E+05  7689.7      320.40     0.87722    
         TOTAL TIME 2.76828E+07 4.61381E+05  7689.7      320.40     0.87722    


end timestep


start timestep kper="1" kstp="78" mode="normal"



  VOLUME BUDGET FOR ENTIRE MODEL AT END OF TIME STEP   78, STRESS PERIOD   1
  ---------------------------------------------------------------------------------------------------

     CUMULATIVE VOLUME      L**3       RATES FOR THIS TIME STEP      L**3/T          PACKAGE NAME    
     ------------------                 ------------------------                     ----------------

           IN:                                      IN:
           ---                                      ---
              STO-SS =           0.0000                STO-SS =           0.0000     STORAGE                          
      CSUB-CGELASTIC =           0.0000        CSUB-CGELASTIC =           0.0000     CSUB                             
        CSUB-ELASTIC =           0.1008          CSUB-ELASTIC =           0.0000     CSUB                             
      CSUB-INELASTIC =           1.2990        CSUB-INELASTIC =       2.0112E-03     CSUB                             
      CSUB-WATERCOMP =           0.0000        CSUB-WATERCOMP =           0.0000     CSUB                             
                 CHD =           0.0000                   CHD =           0.0000     CHD_0                            

            TOTAL IN =           1.3999              TOTAL IN =       2.0112E-03

          OUT:                                     OUT:
          ----                                     ----
              STO-SS =           0.0000                STO-SS =           0.0000     STORAGE                          
      CSUB-CGELASTIC =           0.0000        CSUB-CGELASTIC =           0.0000     CSUB                             
        CSUB-ELASTIC =           0.0000          CSUB-ELASTIC =           0.0000     CSUB                             
      CSUB-INELASTIC =           0.0000        CSUB-INELASTIC =           0.0000     CSUB                             
      CSUB-WATERCOMP =           0.0000        CSUB-WATERCOMP =           0.0000     CSUB                             
                 CHD =           1.3999                   CHD =       2.0112E-03     CHD_0                            

           TOTAL OUT =           1.3999             TOTAL OUT =       2.0112E-03

            IN - OUT =       3.1210E-07              IN - OUT =       1.1603E-09

 PERCENT DISCREPANCY =           0.00     PERCENT DISCREPANCY =           0.00




         TIME SUMMARY AT END OF TIME STEP   78 IN STRESS PERIOD    1
                    SECONDS     MINUTES      HOURS       DAYS        YEARS
                    -----------------------------------------------------------
   TIME STEP LENGTH 1.41725E+06  23621.      393.68      16.403     4.49098E-02
 STRESS PERIOD TIME 2.91001E+07 4.85002E+05  8083.4      336.81     0.92213    
         TOTAL TIME 2.91001E+07 4.85002E+05  8083.4      336.81     0.92213    


end timestep


start timestep kper="1" kstp="79" mode="normal"



  VOLUME BUDGET FOR ENTIRE MODEL AT END OF TIME STEP   79, STRESS PERIOD   1
  ---------------------------------------------------------------------------------------------------

     CUMULATIVE VOLUME      L**3       RATES FOR THIS TIME STEP      L**3/T          PACKAGE NAME    
     ------------------                 ------------------------                     ----------------

           IN:                                      IN:
           ---                                      ---
              STO-SS =           0.0000                STO-SS =           0.0000     STORAGE                          
      CSUB-CGELASTIC =           0.0000        CSUB-CGELASTIC =           0.0000     CSUB                             
        CSUB-ELASTIC =           0.1008          CSUB-ELASTIC =           0.0000     CSUB                             
      CSUB-INELASTIC =           1.3328        CSUB-INELASTIC =       1.9603E-03     CSUB                             
      CSUB-WATERCOMP =           0.0000        CSUB-WATERCOMP =           0.0000     CSUB                             
                 CHD =           0.0000                   CHD =           0.0000     CHD_0                            

            TOTAL IN =           1.4336              TOTAL IN =       1.9603E-03

          OUT:                                     OUT:
          ----                                     ----
              STO-SS =           0.0000                STO-SS =           0.0000     STORAGE                          
      CSUB-CGELASTIC =           0.0000        CSUB-CGELASTIC =           0.0000     CSUB                             
        CSUB-ELASTIC =           0.0000          CSUB-ELASTIC =           0.0000     CSUB                             
      CSUB-INELASTIC =           0.0000        CSUB-INELASTIC =           0.0000     CSUB                             
      CSUB-WATERCOMP =           0.0000        CSUB-WATERCOMP =           0.0000     CSUB                             
                 CHD =           1.4336                   CHD =       1.9603E-03     CHD_0                            

           TOTAL OUT =           1.4336             TOTAL OUT =       1.9603E-03

            IN - OUT =       3.3259E-07              IN - OUT =       1.1896E-09

 PERCENT DISCREPANCY =           0.00     PERCENT DISCREPANCY =           0.00




         TIME SUMMARY AT END OF TIME STEP   79 IN STRESS PERIOD    1
                    SECONDS     MINUTES      HOURS       DAYS        YEARS
                    -----------------------------------------------------------
   TIME STEP LENGTH 1.48811E+06  24802.      413.36      17.223     4.71553E-02
 STRESS PERIOD TIME 3.05882E+07 5.09803E+05  8496.7      354.03     0.96928    
         TOTAL TIME 3.05882E+07 5.09803E+05  8496.7      354.03     0.96928    


end timestep


start timestep kper="1" kstp="80" mode="normal"



  VOLUME BUDGET FOR ENTIRE MODEL AT END OF TIME STEP   80, STRESS PERIOD   1
  ---------------------------------------------------------------------------------------------------

     CUMULATIVE VOLUME      L**3       RATES FOR THIS TIME STEP      L**3/T          PACKAGE NAME    
     ------------------                 ------------------------                     ----------------

           IN:                                      IN:
           ---                                      ---
              STO-SS =           0.0000                STO-SS =           0.0000     STORAGE                          
      CSUB-CGELASTIC =           0.0000        CSUB-CGELASTIC =           0.0000     CSUB                             
        CSUB-ELASTIC =           0.1008          CSUB-ELASTIC =           0.0000     CSUB                             
      CSUB-INELASTIC =           1.3674        CSUB-INELASTIC =       1.9107E-03     CSUB                             
      CSUB-WATERCOMP =           0.0000        CSUB-WATERCOMP =           0.0000     CSUB                             
                 CHD =           0.0000                   CHD =           0.0000     CHD_0                            

            TOTAL IN =           1.4682              TOTAL IN =       1.9107E-03

          OUT:                                     OUT:
          ----                                     ----
              STO-SS =           0.0000                STO-SS =           0.0000     STORAGE                          
      CSUB-CGELASTIC =           0.0000        CSUB-CGELASTIC =           0.0000     CSUB                             
        CSUB-ELASTIC =           0.0000          CSUB-ELASTIC =           0.0000     CSUB                             
      CSUB-INELASTIC =           0.0000        CSUB-INELASTIC =           0.0000     CSUB                             
      CSUB-WATERCOMP =           0.0000        CSUB-WATERCOMP =           0.0000     CSUB                             
                 CHD =           1.4682                   CHD =       1.9107E-03     CHD_0                            

           TOTAL OUT =           1.4682             TOTAL OUT =       1.9107E-03

            IN - OUT =       3.5464E-07              IN - OUT =       1.2194E-09

 PERCENT DISCREPANCY =           0.00     PERCENT DISCREPANCY =           0.00




         TIME SUMMARY AT END OF TIME STEP   80 IN STRESS PERIOD    1
                    SECONDS     MINUTES      HOURS       DAYS        YEARS
                    -----------------------------------------------------------
   TIME STEP LENGTH 1.56251E+06  26042.      434.03      18.085     4.95131E-02
 STRESS PERIOD TIME 3.21507E+07 5.35845E+05  8930.8      372.11      1.0188    
         TOTAL TIME 3.21507E+07 5.35845E+05  8930.8      372.11      1.0188    


end timestep


start timestep kper="1" kstp="81" mode="normal"



  VOLUME BUDGET FOR ENTIRE MODEL AT END OF TIME STEP   81, STRESS PERIOD   1
  ---------------------------------------------------------------------------------------------------

     CUMULATIVE VOLUME      L**3       RATES FOR THIS TIME STEP      L**3/T          PACKAGE NAME    
     ------------------                 ------------------------                     ----------------

           IN:                                      IN:
           ---                                      ---
              STO-SS =           0.0000                STO-SS =           0.0000     STORAGE                          
      CSUB-CGELASTIC =           0.0000        CSUB-CGELASTIC =           0.0000     CSUB                             
        CSUB-ELASTIC =           0.1008          CSUB-ELASTIC =           0.0000     CSUB                             
      CSUB-INELASTIC =           1.4027        CSUB-INELASTIC =       1.8626E-03     CSUB                             
      CSUB-WATERCOMP =           0.0000        CSUB-WATERCOMP =           0.0000     CSUB                             
                 CHD =           0.0000                   CHD =           0.0000     CHD_0                            

            TOTAL IN =           1.5035              TOTAL IN =       1.8626E-03

          OUT:                                     OUT:
          ----                                     ----
              STO-SS =           0.0000                STO-SS =           0.0000     STORAGE                          
      CSUB-CGELASTIC =           0.0000        CSUB-CGELASTIC =           0.0000     CSUB                             
        CSUB-ELASTIC =           0.0000          CSUB-ELASTIC =           0.0000     CSUB                             
      CSUB-INELASTIC =           0.0000        CSUB-INELASTIC =           0.0000     CSUB                             
      CSUB-WATERCOMP =           0.0000        CSUB-WATERCOMP =           0.0000     CSUB                             
                 CHD =           1.5035                   CHD =       1.8626E-03     CHD_0                            

           TOTAL OUT =           1.5035             TOTAL OUT =       1.8626E-03

            IN - OUT =       3.7837E-07              IN - OUT =       1.2494E-09

 PERCENT DISCREPANCY =           0.00     PERCENT DISCREPANCY =           0.00




         TIME SUMMARY AT END OF TIME STEP   81 IN STRESS PERIOD    1
                    SECONDS     MINUTES      HOURS       DAYS        YEARS
                    -----------------------------------------------------------
   TIME STEP LENGTH 1.64064E+06  27344.      455.73      18.989     5.19887E-02
 STRESS PERIOD TIME 3.37914E+07 5.63189E+05  9386.5      391.10      1.0708    
         TOTAL TIME 3.37914E+07 5.63189E+05  9386.5      391.10      1.0708    


end timestep


start timestep kper="1" kstp="82" mode="normal"



  VOLUME BUDGET FOR ENTIRE MODEL AT END OF TIME STEP   82, STRESS PERIOD   1
  ---------------------------------------------------------------------------------------------------

     CUMULATIVE VOLUME      L**3       RATES FOR THIS TIME STEP      L**3/T          PACKAGE NAME    
     ------------------                 ------------------------                     ----------------

           IN:                                      IN:
           ---                                      ---
              STO-SS =           0.0000                STO-SS =           0.0000     STORAGE                          
      CSUB-CGELASTIC =           0.0000        CSUB-CGELASTIC =           0.0000     CSUB                             
        CSUB-ELASTIC =           0.1008          CSUB-ELASTIC =           0.0000     CSUB                             
      CSUB-INELASTIC =           1.4389        CSUB-INELASTIC =       1.8157E-03     CSUB                             
      CSUB-WATERCOMP =           0.0000        CSUB-WATERCOMP =           0.0000     CSUB                             
                 CHD =           0.0000                   CHD =           0.0000     CHD_0                            

            TOTAL IN =           1.5397              TOTAL IN =       1.8157E-03

          OUT:                                     OUT:
          ----                                     ----
              STO-SS =           0.0000                STO-SS =           0.0000     STORAGE                          
      CSUB-CGELASTIC =           0.0000        CSUB-CGELASTIC =           0.0000     CSUB                             
        CSUB-ELASTIC =           0.0000          CSUB-ELASTIC =           0.0000     CSUB                             
      CSUB-INELASTIC =           0.0000        CSUB-INELASTIC =           0.0000     CSUB                             
      CSUB-WATERCOMP =           0.0000        CSUB-WATERCOMP =           0.0000     CSUB                             
                 CHD =           1.5397                   CHD =       1.8157E-03     CHD_0                            

           TOTAL OUT =           1.5397             TOTAL OUT =       1.8157E-03

            IN - OUT =       4.0388E-07              IN - OUT =       1.2798E-09

 PERCENT DISCREPANCY =           0.00     PERCENT DISCREPANCY =           0.00




         TIME SUMMARY AT END OF TIME STEP   82 IN STRESS PERIOD    1
                    SECONDS     MINUTES      HOURS       DAYS        YEARS
                    -----------------------------------------------------------
   TIME STEP LENGTH 1.72267E+06  28711.      478.52      19.938     5.45881E-02
 STRESS PERIOD TIME 3.55140E+07 5.91900E+05  9865.0      411.04      1.1254    
         TOTAL TIME 3.55140E+07 5.91900E+05  9865.0      411.04      1.1254    


end timestep


start timestep kper="1" kstp="83" mode="normal"



  VOLUME BUDGET FOR ENTIRE MODEL AT END OF TIME STEP   83, STRESS PERIOD   1
  ---------------------------------------------------------------------------------------------------

     CUMULATIVE VOLUME      L**3       RATES FOR THIS TIME STEP      L**3/T          PACKAGE NAME    
     ------------------                 ------------------------                     ----------------

           IN:                                      IN:
           ---                                      ---
              STO-SS =           0.0000                STO-SS =           0.0000     STORAGE                          
      CSUB-CGELASTIC =           0.0000        CSUB-CGELASTIC =           0.0000     CSUB                             
        CSUB-ELASTIC =           0.1008          CSUB-ELASTIC =           0.0000     CSUB                             
      CSUB-INELASTIC =           1.4760        CSUB-INELASTIC =       1.7701E-03     CSUB                             
      CSUB-WATERCOMP =           0.0000        CSUB-WATERCOMP =           0.0000     CSUB                             
                 CHD =           0.0000                   CHD =           0.0000     CHD_0                            

            TOTAL IN =           1.5768              TOTAL IN =       1.7701E-03

          OUT:                                     OUT:
          ----                                     ----
              STO-SS =           0.0000                STO-SS =           0.0000     STORAGE                          
      CSUB-CGELASTIC =           0.0000        CSUB-CGELASTIC =           0.0000     CSUB                             
        CSUB-ELASTIC =           0.0000          CSUB-ELASTIC =           0.0000     CSUB                             
      CSUB-INELASTIC =           0.0000        CSUB-INELASTIC =           0.0000     CSUB                             
      CSUB-WATERCOMP =           0.0000        CSUB-WATERCOMP =           0.0000     CSUB                             
                 CHD =           1.5768                   CHD =       1.7701E-03     CHD_0                            

           TOTAL OUT =           1.5768             TOTAL OUT =       1.7701E-03

            IN - OUT =       4.3132E-07              IN - OUT =       1.3106E-09

 PERCENT DISCREPANCY =           0.00     PERCENT DISCREPANCY =           0.00




         TIME SUMMARY AT END OF TIME STEP   83 IN STRESS PERIOD    1
                    SECONDS     MINUTES      HOURS       DAYS        YEARS
                    -----------------------------------------------------------
   TIME STEP LENGTH 1.80880E+06  30147.      502.45      20.935     5.73175E-02
 STRESS PERIOD TIME 3.73228E+07 6.22047E+05  10367.      431.98      1.1827    
         TOTAL TIME 3.73228E+07 6.22047E+05  10367.      431.98      1.1827    


end timestep


start timestep kper="1" kstp="84" mode="normal"



  VOLUME BUDGET FOR ENTIRE MODEL AT END OF TIME STEP   84, STRESS PERIOD   1
  ---------------------------------------------------------------------------------------------------

     CUMULATIVE VOLUME      L**3       RATES FOR THIS TIME STEP      L**3/T          PACKAGE NAME    
     ------------------                 ------------------------                     ----------------

           IN:                                      IN:
           ---                                      ---
              STO-SS =           0.0000                STO-SS =           0.0000     STORAGE                          
      CSUB-CGELASTIC =           0.0000        CSUB-CGELASTIC =           0.0000     CSUB                             
        CSUB-ELASTIC =           0.1008          CSUB-ELASTIC =           0.0000     CSUB                             
      CSUB-INELASTIC =           1.5139        CSUB-INELASTIC =       1.7258E-03     CSUB                             
      CSUB-WATERCOMP =           0.0000        CSUB-WATERCOMP =           0.0000     CSUB                             
                 CHD =           0.0000                   CHD =           0.0000     CHD_0                            

            TOTAL IN =           1.6147              TOTAL IN =       1.7258E-03

          OUT:                                     OUT:
          ----                                     ----
              STO-SS =           0.0000                STO-SS =           0.0000     STORAGE                          
      CSUB-CGELASTIC =           0.0000        CSUB-CGELASTIC =           0.0000     CSUB                             
        CSUB-ELASTIC =           0.0000          CSUB-ELASTIC =           0.0000     CSUB                             
      CSUB-INELASTIC =           0.0000        CSUB-INELASTIC =           0.0000     CSUB                             
      CSUB-WATERCOMP =           0.0000        CSUB-WATERCOMP =           0.0000     CSUB                             
                 CHD =           1.6147                   CHD =       1.7258E-03     CHD_0                            

           TOTAL OUT =           1.6147             TOTAL OUT =       1.7258E-03

            IN - OUT =       4.6081E-07              IN - OUT =       1.3417E-09

 PERCENT DISCREPANCY =           0.00     PERCENT DISCREPANCY =           0.00




         TIME SUMMARY AT END OF TIME STEP   84 IN STRESS PERIOD    1
                    SECONDS     MINUTES      HOURS       DAYS        YEARS
                    -----------------------------------------------------------
   TIME STEP LENGTH 1.89924E+06  31654.      527.57      21.982     6.01834E-02
 STRESS PERIOD TIME 3.92221E+07 6.53701E+05  10895.      453.96      1.2429    
         TOTAL TIME 3.92221E+07 6.53701E+05  10895.      453.96      1.2429    


end timestep


start timestep kper="1" kstp="85" mode="normal"



  VOLUME BUDGET FOR ENTIRE MODEL AT END OF TIME STEP   85, STRESS PERIOD   1
  ---------------------------------------------------------------------------------------------------

     CUMULATIVE VOLUME      L**3       RATES FOR THIS TIME STEP      L**3/T          PACKAGE NAME    
     ------------------                 ------------------------                     ----------------

           IN:                                      IN:
           ---                                      ---
              STO-SS =           0.0000                STO-SS =           0.0000     STORAGE                          
      CSUB-CGELASTIC =           0.0000        CSUB-CGELASTIC =           0.0000     CSUB                             
        CSUB-ELASTIC =           0.1008          CSUB-ELASTIC =           0.0000     CSUB                             
      CSUB-INELASTIC =           1.5528        CSUB-INELASTIC =       1.6826E-03     CSUB                             
      CSUB-WATERCOMP =           0.0000        CSUB-WATERCOMP =           0.0000     CSUB                             
                 CHD =           0.0000                   CHD =           0.0000     CHD_0                            

            TOTAL IN =           1.6536              TOTAL IN =       1.6826E-03

          OUT:                                     OUT:
          ----                                     ----
              STO-SS =           0.0000                STO-SS =           0.0000     STORAGE                          
      CSUB-CGELASTIC =           0.0000        CSUB-CGELASTIC =           0.0000     CSUB                             
        CSUB-ELASTIC =           0.0000          CSUB-ELASTIC =           0.0000     CSUB                             
      CSUB-INELASTIC =           0.0000        CSUB-INELASTIC =           0.0000     CSUB                             
      CSUB-WATERCOMP =           0.0000        CSUB-WATERCOMP =           0.0000     CSUB                             
                 CHD =           1.6536                   CHD =       1.6826E-03     CHD_0                            

           TOTAL OUT =           1.6536             TOTAL OUT =       1.6826E-03

            IN - OUT =       4.9251E-07              IN - OUT =       1.3731E-09

 PERCENT DISCREPANCY =           0.00     PERCENT DISCREPANCY =           0.00




         TIME SUMMARY AT END OF TIME STEP   85 IN STRESS PERIOD    1
                    SECONDS     MINUTES      HOURS       DAYS        YEARS
                    -----------------------------------------------------------
   TIME STEP LENGTH 1.99421E+06  33237.      553.95      23.081     6.31926E-02
 STRESS PERIOD TIME 4.12163E+07 6.86938E+05  11449.      477.04      1.3061    
         TOTAL TIME 4.12163E+07 6.86938E+05  11449.      477.04      1.3061    


end timestep


start timestep kper="1" kstp="86" mode="normal"



  VOLUME BUDGET FOR ENTIRE MODEL AT END OF TIME STEP   86, STRESS PERIOD   1
  ---------------------------------------------------------------------------------------------------

     CUMULATIVE VOLUME      L**3       RATES FOR THIS TIME STEP      L**3/T          PACKAGE NAME    
     ------------------                 ------------------------                     ----------------

           IN:                                      IN:
           ---                                      ---
              STO-SS =           0.0000                STO-SS =           0.0000     STORAGE                          
      CSUB-CGELASTIC =           0.0000        CSUB-CGELASTIC =           0.0000     CSUB                             
        CSUB-ELASTIC =           0.1008          CSUB-ELASTIC =           0.0000     CSUB                             
      CSUB-INELASTIC =           1.5925        CSUB-INELASTIC =       1.6406E-03     CSUB                             
      CSUB-WATERCOMP =           0.0000        CSUB-WATERCOMP =           0.0000     CSUB                             
                 CHD =           0.0000                   CHD =           0.0000     CHD_0                            

            TOTAL IN =           1.6933              TOTAL IN =       1.6406E-03

          OUT:                                     OUT:
          ----                                     ----
              STO-SS =           0.0000                STO-SS =           0.0000     STORAGE                          
      CSUB-CGELASTIC =           0.0000        CSUB-CGELASTIC =           0.0000     CSUB                             
        CSUB-ELASTIC =           0.0000          CSUB-ELASTIC =           0.0000     CSUB                             
      CSUB-INELASTIC =           0.0000        CSUB-INELASTIC =           0.0000     CSUB                             
      CSUB-WATERCOMP =           0.0000        CSUB-WATERCOMP =           0.0000     CSUB                             
                 CHD =           1.6933                   CHD =       1.6406E-03     CHD_0                            

           TOTAL OUT =           1.6933             TOTAL OUT =       1.6406E-03

            IN - OUT =       5.2656E-07              IN - OUT =       1.4049E-09

 PERCENT DISCREPANCY =           0.00     PERCENT DISCREPANCY =           0.00




         TIME SUMMARY AT END OF TIME STEP   86 IN STRESS PERIOD    1
                    SECONDS     MINUTES      HOURS       DAYS        YEARS
                    -----------------------------------------------------------
   TIME STEP LENGTH 2.09392E+06  34899.      581.64      24.235     6.63522E-02
 STRESS PERIOD TIME 4.33102E+07 7.21837E+05  12031.      501.28      1.3724    
         TOTAL TIME 4.33102E+07 7.21837E+05  12031.      501.28      1.3724    


end timestep


start timestep kper="1" kstp="87" mode="normal"



  VOLUME BUDGET FOR ENTIRE MODEL AT END OF TIME STEP   87, STRESS PERIOD   1
  ---------------------------------------------------------------------------------------------------

     CUMULATIVE VOLUME      L**3       RATES FOR THIS TIME STEP      L**3/T          PACKAGE NAME    
     ------------------                 ------------------------                     ----------------

           IN:                                      IN:
           ---                                      ---
              STO-SS =           0.0000                STO-SS =           0.0000     STORAGE                          
      CSUB-CGELASTIC =           0.0000        CSUB-CGELASTIC =           0.0000     CSUB                             
        CSUB-ELASTIC =           0.1008          CSUB-ELASTIC =           0.0000     CSUB                             
      CSUB-INELASTIC =           1.6332        CSUB-INELASTIC =       1.5997E-03     CSUB                             
      CSUB-WATERCOMP =           0.0000        CSUB-WATERCOMP =           0.0000     CSUB                             
                 CHD =           0.0000                   CHD =           0.0000     CHD_0                            

            TOTAL IN =           1.7340              TOTAL IN =       1.5997E-03

          OUT:                                     OUT:
          ----                                     ----
              STO-SS =           0.0000                STO-SS =           0.0000     STORAGE                          
      CSUB-CGELASTIC =           0.0000        CSUB-CGELASTIC =           0.0000     CSUB                             
        CSUB-ELASTIC =           0.0000          CSUB-ELASTIC =           0.0000     CSUB                             
      CSUB-INELASTIC =           0.0000        CSUB-INELASTIC =           0.0000     CSUB                             
      CSUB-WATERCOMP =           0.0000        CSUB-WATERCOMP =           0.0000     CSUB                             
                 CHD =           1.7340                   CHD =       1.5997E-03     CHD_0                            

           TOTAL OUT =           1.7340             TOTAL OUT =       1.5997E-03

            IN - OUT =       5.6313E-07              IN - OUT =       1.4371E-09

 PERCENT DISCREPANCY =           0.00     PERCENT DISCREPANCY =           0.00




         TIME SUMMARY AT END OF TIME STEP   87 IN STRESS PERIOD    1
                    SECONDS     MINUTES      HOURS       DAYS        YEARS
                    -----------------------------------------------------------
   TIME STEP LENGTH 2.19861E+06  36644.      610.73      25.447     6.96698E-02
 STRESS PERIOD TIME 4.55088E+07 7.58480E+05  12641.      526.72      1.4421    
         TOTAL TIME 4.55088E+07 7.58480E+05  12641.      526.72      1.4421    


end timestep


start timestep kper="1" kstp="88" mode="normal"



  VOLUME BUDGET FOR ENTIRE MODEL AT END OF TIME STEP   88, STRESS PERIOD   1
  ---------------------------------------------------------------------------------------------------

     CUMULATIVE VOLUME      L**3       RATES FOR THIS TIME STEP      L**3/T          PACKAGE NAME    
     ------------------                 ------------------------                     ----------------

           IN:                                      IN:
           ---                                      ---
              STO-SS =           0.0000                STO-SS =           0.0000     STORAGE                          
      CSUB-CGELASTIC =           0.0000        CSUB-CGELASTIC =           0.0000     CSUB                             
        CSUB-ELASTIC =           0.1008          CSUB-ELASTIC =           0.0000     CSUB                             
      CSUB-INELASTIC =           1.6749        CSUB-INELASTIC =       1.5598E-03     CSUB                             
      CSUB-WATERCOMP =           0.0000        CSUB-WATERCOMP =           0.0000     CSUB                             
                 CHD =           0.0000                   CHD =           0.0000     CHD_0                            

            TOTAL IN =           1.7757              TOTAL IN =       1.5598E-03

          OUT:                                     OUT:
          ----                                     ----
              STO-SS =           0.0000                STO-SS =           0.0000     STORAGE                          
      CSUB-CGELASTIC =           0.0000        CSUB-CGELASTIC =           0.0000     CSUB                             
        CSUB-ELASTIC =           0.0000          CSUB-ELASTIC =           0.0000     CSUB                             
      CSUB-INELASTIC =           0.0000        CSUB-INELASTIC =           0.0000     CSUB                             
      CSUB-WATERCOMP =           0.0000        CSUB-WATERCOMP =           0.0000     CSUB                             
                 CHD =           1.7757                   CHD =       1.5598E-03     CHD_0                            

           TOTAL OUT =           1.7757             TOTAL OUT =       1.5598E-03

            IN - OUT =       6.0239E-07              IN - OUT =       1.4696E-09

 PERCENT DISCREPANCY =           0.00     PERCENT DISCREPANCY =           0.00




         TIME SUMMARY AT END OF TIME STEP   88 IN STRESS PERIOD    1
                    SECONDS     MINUTES      HOURS       DAYS        YEARS
                    -----------------------------------------------------------
   TIME STEP LENGTH 2.30854E+06  38476.      641.26      26.719     7.31533E-02
 STRESS PERIOD TIME 4.78174E+07 7.96956E+05  13283.      553.44      1.5152    
         TOTAL TIME 4.78174E+07 7.96956E+05  13283.      553.44      1.5152    


end timestep


start timestep kper="1" kstp="89" mode="normal"



  VOLUME BUDGET FOR ENTIRE MODEL AT END OF TIME STEP   89, STRESS PERIOD   1
  ---------------------------------------------------------------------------------------------------

     CUMULATIVE VOLUME      L**3       RATES FOR THIS TIME STEP      L**3/T          PACKAGE NAME    
     ------------------                 ------------------------                     ----------------

           IN:                                      IN:
           ---                                      ---
              STO-SS =           0.0000                STO-SS =           0.0000     STORAGE                          
      CSUB-CGELASTIC =           0.0000        CSUB-CGELASTIC =           0.0000     CSUB                             
        CSUB-ELASTIC =           0.1008          CSUB-ELASTIC =           0.0000     CSUB                             
      CSUB-INELASTIC =           1.7176        CSUB-INELASTIC =       1.5211E-03     CSUB                             
      CSUB-WATERCOMP =           0.0000        CSUB-WATERCOMP =           0.0000     CSUB                             
                 CHD =           0.0000                   CHD =           0.0000     CHD_0                            

            TOTAL IN =           1.8184              TOTAL IN =       1.5211E-03

          OUT:                                     OUT:
          ----                                     ----
              STO-SS =           0.0000                STO-SS =           0.0000     STORAGE                          
      CSUB-CGELASTIC =           0.0000        CSUB-CGELASTIC =           0.0000     CSUB                             
        CSUB-ELASTIC =           0.0000          CSUB-ELASTIC =           0.0000     CSUB                             
      CSUB-INELASTIC =           0.0000        CSUB-INELASTIC =           0.0000     CSUB                             
      CSUB-WATERCOMP =           0.0000        CSUB-WATERCOMP =           0.0000     CSUB                             
                 CHD =           1.8184                   CHD =       1.5211E-03     CHD_0                            

           TOTAL OUT =           1.8184             TOTAL OUT =       1.5211E-03

            IN - OUT =       6.4455E-07              IN - OUT =       1.5025E-09

 PERCENT DISCREPANCY =           0.00     PERCENT DISCREPANCY =           0.00




         TIME SUMMARY AT END OF TIME STEP   89 IN STRESS PERIOD    1
                    SECONDS     MINUTES      HOURS       DAYS        YEARS
                    -----------------------------------------------------------
   TIME STEP LENGTH 2.42397E+06  40400.      673.33      28.055     7.68110E-02
 STRESS PERIOD TIME 5.02413E+07 8.37355E+05  13956.      581.50      1.5921    
         TOTAL TIME 5.02413E+07 8.37355E+05  13956.      581.50      1.5921    


end timestep


start timestep kper="1" kstp="90" mode="normal"



  VOLUME BUDGET FOR ENTIRE MODEL AT END OF TIME STEP   90, STRESS PERIOD   1
  ---------------------------------------------------------------------------------------------------

     CUMULATIVE VOLUME      L**3       RATES FOR THIS TIME STEP      L**3/T          PACKAGE NAME    
     ------------------                 ------------------------                     ----------------

           IN:                                      IN:
           ---                                      ---
              STO-SS =           0.0000                STO-SS =           0.0000     STORAGE                          
      CSUB-CGELASTIC =           0.0000        CSUB-CGELASTIC =           0.0000     CSUB                             
        CSUB-ELASTIC =           0.1008          CSUB-ELASTIC =           0.0000     CSUB                             
      CSUB-INELASTIC =           1.7613        CSUB-INELASTIC =       1.4833E-03     CSUB                             
      CSUB-WATERCOMP =           0.0000        CSUB-WATERCOMP =           0.0000     CSUB                             
                 CHD =           0.0000                   CHD =           0.0000     CHD_0                            

            TOTAL IN =           1.8621              TOTAL IN =       1.4833E-03

          OUT:                                     OUT:
          ----                                     ----
              STO-SS =           0.0000                STO-SS =           0.0000     STORAGE                          
      CSUB-CGELASTIC =           0.0000        CSUB-CGELASTIC =           0.0000     CSUB                             
        CSUB-ELASTIC =           0.0000          CSUB-ELASTIC =           0.0000     CSUB                             
      CSUB-INELASTIC =           0.0000        CSUB-INELASTIC =           0.0000     CSUB                             
      CSUB-WATERCOMP =           0.0000        CSUB-WATERCOMP =           0.0000     CSUB                             
                 CHD =           1.8621                   CHD =       1.4833E-03     CHD_0                            

           TOTAL OUT =           1.8621             TOTAL OUT =       1.4833E-03

            IN - OUT =       6.8979E-07              IN - OUT =       1.5358E-09

 PERCENT DISCREPANCY =           0.00     PERCENT DISCREPANCY =           0.00




         TIME SUMMARY AT END OF TIME STEP   90 IN STRESS PERIOD    1
                    SECONDS     MINUTES      HOURS       DAYS        YEARS
                    -----------------------------------------------------------
   TIME STEP LENGTH 2.54517E+06  42419.      706.99      29.458     8.06515E-02
 STRESS PERIOD TIME 5.27865E+07 8.79775E+05  14663.      610.95      1.6727    
         TOTAL TIME 5.27865E+07 8.79775E+05  14663.      610.95      1.6727    


end timestep


start timestep kper="1" kstp="91" mode="normal"



  VOLUME BUDGET FOR ENTIRE MODEL AT END OF TIME STEP   91, STRESS PERIOD   1
  ---------------------------------------------------------------------------------------------------

     CUMULATIVE VOLUME      L**3       RATES FOR THIS TIME STEP      L**3/T          PACKAGE NAME    
     ------------------                 ------------------------                     ----------------

           IN:                                      IN:
           ---                                      ---
              STO-SS =           0.0000                STO-SS =           0.0000     STORAGE                          
      CSUB-CGELASTIC =           0.0000        CSUB-CGELASTIC =           0.0000     CSUB                             
        CSUB-ELASTIC =           0.1008          CSUB-ELASTIC =           0.0000     CSUB                             
      CSUB-INELASTIC =           1.8060        CSUB-INELASTIC =       1.4465E-03     CSUB                             
      CSUB-WATERCOMP =           0.0000        CSUB-WATERCOMP =           0.0000     CSUB                             
                 CHD =           0.0000                   CHD =           0.0000     CHD_0                            

            TOTAL IN =           1.9068              TOTAL IN =       1.4465E-03

          OUT:                                     OUT:
          ----                                     ----
              STO-SS =           0.0000                STO-SS =           0.0000     STORAGE                          
      CSUB-CGELASTIC =           0.0000        CSUB-CGELASTIC =           0.0000     CSUB                             
        CSUB-ELASTIC =           0.0000          CSUB-ELASTIC =           0.0000     CSUB                             
      CSUB-INELASTIC =           0.0000        CSUB-INELASTIC =           0.0000     CSUB                             
      CSUB-WATERCOMP =           0.0000        CSUB-WATERCOMP =           0.0000     CSUB                             
                 CHD =           1.9068                   CHD =       1.4465E-03     CHD_0                            

           TOTAL OUT =           1.9068             TOTAL OUT =       1.4465E-03

            IN - OUT =       7.3833E-07              IN - OUT =       1.5695E-09

 PERCENT DISCREPANCY =           0.00     PERCENT DISCREPANCY =           0.00




         TIME SUMMARY AT END OF TIME STEP   91 IN STRESS PERIOD    1
                    SECONDS     MINUTES      HOURS       DAYS        YEARS
                    -----------------------------------------------------------
   TIME STEP LENGTH 2.67243E+06  44540.      742.34      30.931     8.46841E-02
 STRESS PERIOD TIME 5.54589E+07 9.24315E+05  15405.      641.89      1.7574    
         TOTAL TIME 5.54589E+07 9.24315E+05  15405.      641.89      1.7574    


end timestep


start timestep kper="1" kstp="92" mode="normal"



  VOLUME BUDGET FOR ENTIRE MODEL AT END OF TIME STEP   92, STRESS PERIOD   1
  ---------------------------------------------------------------------------------------------------

     CUMULATIVE VOLUME      L**3       RATES FOR THIS TIME STEP      L**3/T          PACKAGE NAME    
     ------------------                 ------------------------                     ----------------

           IN:                                      IN:
           ---                                      ---
              STO-SS =           0.0000                STO-SS =           0.0000     STORAGE                          
      CSUB-CGELASTIC =           0.0000        CSUB-CGELASTIC =           0.0000     CSUB                             
        CSUB-ELASTIC =           0.1008          CSUB-ELASTIC =           0.0000     CSUB                             
      CSUB-INELASTIC =           1.8518        CSUB-INELASTIC =       1.4107E-03     CSUB                             
      CSUB-WATERCOMP =           0.0000        CSUB-WATERCOMP =           0.0000     CSUB                             
                 CHD =           0.0000                   CHD =           0.0000     CHD_0                            

            TOTAL IN =           1.9527              TOTAL IN =       1.4107E-03

          OUT:                                     OUT:
          ----                                     ----
              STO-SS =           0.0000                STO-SS =           0.0000     STORAGE                          
      CSUB-CGELASTIC =           0.0000        CSUB-CGELASTIC =           0.0000     CSUB                             
        CSUB-ELASTIC =           0.0000          CSUB-ELASTIC =           0.0000     CSUB                             
      CSUB-INELASTIC =           0.0000        CSUB-INELASTIC =           0.0000     CSUB                             
      CSUB-WATERCOMP =           0.0000        CSUB-WATERCOMP =           0.0000     CSUB                             
                 CHD =           1.9526                   CHD =       1.4107E-03     CHD_0                            

           TOTAL OUT =           1.9526             TOTAL OUT =       1.4107E-03

            IN - OUT =       7.9041E-07              IN - OUT =       1.6035E-09

 PERCENT DISCREPANCY =           0.00     PERCENT DISCREPANCY =           0.00




         TIME SUMMARY AT END OF TIME STEP   92 IN STRESS PERIOD    1
                    SECONDS     MINUTES      HOURS       DAYS        YEARS
                    -----------------------------------------------------------
   TIME STEP LENGTH 2.80605E+06  46767.      779.46      32.477     8.89183E-02
 STRESS PERIOD TIME 5.82650E+07 9.71083E+05  16185.      674.36      1.8463    
         TOTAL TIME 5.82650E+07 9.71083E+05  16185.      674.36      1.8463    


end timestep


start timestep kper="1" kstp="93" mode="normal"



  VOLUME BUDGET FOR ENTIRE MODEL AT END OF TIME STEP   93, STRESS PERIOD   1
  ---------------------------------------------------------------------------------------------------

     CUMULATIVE VOLUME      L**3       RATES FOR THIS TIME STEP      L**3/T          PACKAGE NAME    
     ------------------                 ------------------------                     ----------------

           IN:                                      IN:
           ---                                      ---
              STO-SS =           0.0000                STO-SS =           0.0000     STORAGE                          
      CSUB-CGELASTIC =           0.0000        CSUB-CGELASTIC =           0.0000     CSUB                             
        CSUB-ELASTIC =           0.1008          CSUB-ELASTIC =           0.0000     CSUB                             
      CSUB-INELASTIC =           1.8988        CSUB-INELASTIC =       1.3758E-03     CSUB                             
      CSUB-WATERCOMP =           0.0000        CSUB-WATERCOMP =           0.0000     CSUB                             
                 CHD =           0.0000                   CHD =           0.0000     CHD_0                            

            TOTAL IN =           1.9996              TOTAL IN =       1.3758E-03

          OUT:                                     OUT:
          ----                                     ----
              STO-SS =           0.0000                STO-SS =           0.0000     STORAGE                          
      CSUB-CGELASTIC =           0.0000        CSUB-CGELASTIC =           0.0000     CSUB                             
        CSUB-ELASTIC =           0.0000          CSUB-ELASTIC =           0.0000     CSUB                             
      CSUB-INELASTIC =           0.0000        CSUB-INELASTIC =           0.0000     CSUB                             
      CSUB-WATERCOMP =           0.0000        CSUB-WATERCOMP =           0.0000     CSUB                             
                 CHD =           1.9996                   CHD =       1.3758E-03     CHD_0                            

           TOTAL OUT =           1.9996             TOTAL OUT =       1.3758E-03

            IN - OUT =       8.4627E-07              IN - OUT =       1.6379E-09

 PERCENT DISCREPANCY =           0.00     PERCENT DISCREPANCY =           0.00




         TIME SUMMARY AT END OF TIME STEP   93 IN STRESS PERIOD    1
                    SECONDS     MINUTES      HOURS       DAYS        YEARS
                    -----------------------------------------------------------
   TIME STEP LENGTH 2.94635E+06  49106.      818.43      34.101     9.33642E-02
 STRESS PERIOD TIME 6.12113E+07 1.02019E+06  17003.      708.46      1.9397    
         TOTAL TIME 6.12113E+07 1.02019E+06  17003.      708.46      1.9397    


end timestep


start timestep kper="1" kstp="94" mode="normal"



  VOLUME BUDGET FOR ENTIRE MODEL AT END OF TIME STEP   94, STRESS PERIOD   1
  ---------------------------------------------------------------------------------------------------

     CUMULATIVE VOLUME      L**3       RATES FOR THIS TIME STEP      L**3/T          PACKAGE NAME    
     ------------------                 ------------------------                     ----------------

           IN:                                      IN:
           ---                                      ---
              STO-SS =           0.0000                STO-SS =           0.0000     STORAGE                          
      CSUB-CGELASTIC =           0.0000        CSUB-CGELASTIC =           0.0000     CSUB                             
        CSUB-ELASTIC =           0.1008          CSUB-ELASTIC =           0.0000     CSUB                             
      CSUB-INELASTIC =           1.9468        CSUB-INELASTIC =       1.3418E-03     CSUB                             
      CSUB-WATERCOMP =           0.0000        CSUB-WATERCOMP =           0.0000     CSUB                             
                 CHD =           0.0000                   CHD =           0.0000     CHD_0                            

            TOTAL IN =           2.0476              TOTAL IN =       1.3418E-03

          OUT:                                     OUT:
          ----                                     ----
              STO-SS =           0.0000                STO-SS =           0.0000     STORAGE                          
      CSUB-CGELASTIC =           0.0000        CSUB-CGELASTIC =           0.0000     CSUB                             
        CSUB-ELASTIC =           0.0000          CSUB-ELASTIC =           0.0000     CSUB                             
      CSUB-INELASTIC =           0.0000        CSUB-INELASTIC =           0.0000     CSUB                             
      CSUB-WATERCOMP =           0.0000        CSUB-WATERCOMP =           0.0000     CSUB                             
                 CHD =           2.0476                   CHD =       1.3418E-03     CHD_0                            

           TOTAL OUT =           2.0476             TOTAL OUT =       1.3418E-03

            IN - OUT =       9.0616E-07              IN - OUT =       1.6728E-09

 PERCENT DISCREPANCY =           0.00     PERCENT DISCREPANCY =           0.00




         TIME SUMMARY AT END OF TIME STEP   94 IN STRESS PERIOD    1
                    SECONDS     MINUTES      HOURS       DAYS        YEARS
                    -----------------------------------------------------------
   TIME STEP LENGTH 3.09367E+06  51561.      859.35      35.806     9.80325E-02
 STRESS PERIOD TIME 6.43050E+07 1.07175E+06  17862.      744.27      2.0377    
         TOTAL TIME 6.43050E+07 1.07175E+06  17862.      744.27      2.0377    


end timestep


start timestep kper="1" kstp="95" mode="normal"



  VOLUME BUDGET FOR ENTIRE MODEL AT END OF TIME STEP   95, STRESS PERIOD   1
  ---------------------------------------------------------------------------------------------------

     CUMULATIVE VOLUME      L**3       RATES FOR THIS TIME STEP      L**3/T          PACKAGE NAME    
     ------------------                 ------------------------                     ----------------

           IN:                                      IN:
           ---                                      ---
              STO-SS =           0.0000                STO-SS =           0.0000     STORAGE                          
      CSUB-CGELASTIC =           0.0000        CSUB-CGELASTIC =           0.0000     CSUB                             
        CSUB-ELASTIC =           0.1008          CSUB-ELASTIC =           0.0000     CSUB                             
      CSUB-INELASTIC =           1.9960        CSUB-INELASTIC =       1.3087E-03     CSUB                             
      CSUB-WATERCOMP =           0.0000        CSUB-WATERCOMP =           0.0000     CSUB                             
                 CHD =           0.0000                   CHD =           0.0000     CHD_0                            

            TOTAL IN =           2.0968              TOTAL IN =       1.3087E-03

          OUT:                                     OUT:
          ----                                     ----
              STO-SS =           0.0000                STO-SS =           0.0000     STORAGE                          
      CSUB-CGELASTIC =           0.0000        CSUB-CGELASTIC =           0.0000     CSUB                             
        CSUB-ELASTIC =           0.0000          CSUB-ELASTIC =           0.0000     CSUB                             
      CSUB-INELASTIC =           0.0000        CSUB-INELASTIC =           0.0000     CSUB                             
      CSUB-WATERCOMP =           0.0000        CSUB-WATERCOMP =           0.0000     CSUB                             
                 CHD =           2.0968                   CHD =       1.3087E-03     CHD_0                            

           TOTAL OUT =           2.0968             TOTAL OUT =       1.3087E-03

            IN - OUT =       9.7038E-07              IN - OUT =       1.7080E-09

 PERCENT DISCREPANCY =           0.00     PERCENT DISCREPANCY =           0.00




         TIME SUMMARY AT END OF TIME STEP   95 IN STRESS PERIOD    1
                    SECONDS     MINUTES      HOURS       DAYS        YEARS
                    -----------------------------------------------------------
   TIME STEP LENGTH 3.24835E+06  54139.      902.32      37.597     0.10293    
 STRESS PERIOD TIME 6.75533E+07 1.12589E+06  18765.      781.87      2.1406    
         TOTAL TIME 6.75533E+07 1.12589E+06  18765.      781.87      2.1406    


end timestep


start timestep kper="1" kstp="96" mode="normal"



  VOLUME BUDGET FOR ENTIRE MODEL AT END OF TIME STEP   96, STRESS PERIOD   1
  ---------------------------------------------------------------------------------------------------

     CUMULATIVE VOLUME      L**3       RATES FOR THIS TIME STEP      L**3/T          PACKAGE NAME    
     ------------------                 ------------------------                     ----------------

           IN:                                      IN:
           ---                                      ---
              STO-SS =           0.0000                STO-SS =           0.0000     STORAGE                          
      CSUB-CGELASTIC =           0.0000        CSUB-CGELASTIC =           0.0000     CSUB                             
        CSUB-ELASTIC =           0.1008          CSUB-ELASTIC =           0.0000     CSUB                             
      CSUB-INELASTIC =           2.0464        CSUB-INELASTIC =       1.2765E-03     CSUB                             
      CSUB-WATERCOMP =           0.0000        CSUB-WATERCOMP =           0.0000     CSUB                             
                 CHD =           0.0000                   CHD =           0.0000     CHD_0                            

            TOTAL IN =           2.1472              TOTAL IN =       1.2765E-03

          OUT:                                     OUT:
          ----                                     ----
              STO-SS =           0.0000                STO-SS =           0.0000     STORAGE                          
      CSUB-CGELASTIC =           0.0000        CSUB-CGELASTIC =           0.0000     CSUB                             
        CSUB-ELASTIC =           0.0000          CSUB-ELASTIC =           0.0000     CSUB                             
      CSUB-INELASTIC =           0.0000        CSUB-INELASTIC =           0.0000     CSUB                             
      CSUB-WATERCOMP =           0.0000        CSUB-WATERCOMP =           0.0000     CSUB                             
                 CHD =           2.1472                   CHD =       1.2765E-03     CHD_0                            

           TOTAL OUT =           2.1472             TOTAL OUT =       1.2765E-03

            IN - OUT =       1.0392E-06              IN - OUT =       1.7436E-09

 PERCENT DISCREPANCY =           0.00     PERCENT DISCREPANCY =           0.00




         TIME SUMMARY AT END OF TIME STEP   96 IN STRESS PERIOD    1
                    SECONDS     MINUTES      HOURS       DAYS        YEARS
                    -----------------------------------------------------------
   TIME STEP LENGTH 3.41077E+06  56846.      947.44      39.477     0.10808    
 STRESS PERIOD TIME 7.09641E+07 1.18274E+06  19712.      821.34      2.2487    
         TOTAL TIME 7.09641E+07 1.18274E+06  19712.      821.34      2.2487    


end timestep


start timestep kper="1" kstp="97" mode="normal"



  VOLUME BUDGET FOR ENTIRE MODEL AT END OF TIME STEP   97, STRESS PERIOD   1
  ---------------------------------------------------------------------------------------------------

     CUMULATIVE VOLUME      L**3       RATES FOR THIS TIME STEP      L**3/T          PACKAGE NAME    
     ------------------                 ------------------------                     ----------------

           IN:                                      IN:
           ---                                      ---
              STO-SS =           0.0000                STO-SS =           0.0000     STORAGE                          
      CSUB-CGELASTIC =           0.0000        CSUB-CGELASTIC =           0.0000     CSUB                             
        CSUB-ELASTIC =           0.1008          CSUB-ELASTIC =           0.0000     CSUB                             
      CSUB-INELASTIC =           2.0980        CSUB-INELASTIC =       1.2450E-03     CSUB                             
      CSUB-WATERCOMP =           0.0000        CSUB-WATERCOMP =           0.0000     CSUB                             
                 CHD =           0.0000                   CHD =           0.0000     CHD_0                            

            TOTAL IN =           2.1988              TOTAL IN =       1.2450E-03

          OUT:                                     OUT:
          ----                                     ----
              STO-SS =           0.0000                STO-SS =           0.0000     STORAGE                          
      CSUB-CGELASTIC =           0.0000        CSUB-CGELASTIC =           0.0000     CSUB                             
        CSUB-ELASTIC =           0.0000          CSUB-ELASTIC =           0.0000     CSUB                             
      CSUB-INELASTIC =           0.0000        CSUB-INELASTIC =           0.0000     CSUB                             
      CSUB-WATERCOMP =           0.0000        CSUB-WATERCOMP =           0.0000     CSUB                             
                 CHD =           2.1988                   CHD =       1.2450E-03     CHD_0                            

           TOTAL OUT =           2.1988             TOTAL OUT =       1.2450E-03

            IN - OUT =       1.1130E-06              IN - OUT =       1.7796E-09

 PERCENT DISCREPANCY =           0.00     PERCENT DISCREPANCY =           0.00




         TIME SUMMARY AT END OF TIME STEP   97 IN STRESS PERIOD    1
                    SECONDS     MINUTES      HOURS       DAYS        YEARS
                    -----------------------------------------------------------
   TIME STEP LENGTH 3.58131E+06  59688.      994.81      41.450     0.11348    
 STRESS PERIOD TIME 7.45454E+07 1.24242E+06  20707.      862.79      2.3622    
         TOTAL TIME 7.45454E+07 1.24242E+06  20707.      862.79      2.3622    


end timestep


start timestep kper="1" kstp="98" mode="normal"



  VOLUME BUDGET FOR ENTIRE MODEL AT END OF TIME STEP   98, STRESS PERIOD   1
  ---------------------------------------------------------------------------------------------------

     CUMULATIVE VOLUME      L**3       RATES FOR THIS TIME STEP      L**3/T          PACKAGE NAME    
     ------------------                 ------------------------                     ----------------

           IN:                                      IN:
           ---                                      ---
              STO-SS =           0.0000                STO-SS =           0.0000     STORAGE                          
      CSUB-CGELASTIC =           0.0000        CSUB-CGELASTIC =           0.0000     CSUB                             
        CSUB-ELASTIC =           0.1008          CSUB-ELASTIC =           0.0000     CSUB                             
      CSUB-INELASTIC =           2.1509        CSUB-INELASTIC =       1.2144E-03     CSUB                             
      CSUB-WATERCOMP =           0.0000        CSUB-WATERCOMP =           0.0000     CSUB                             
                 CHD =           0.0000                   CHD =           0.0000     CHD_0                            

            TOTAL IN =           2.2517              TOTAL IN =       1.2144E-03

          OUT:                                     OUT:
          ----                                     ----
              STO-SS =           0.0000                STO-SS =           0.0000     STORAGE                          
      CSUB-CGELASTIC =           0.0000        CSUB-CGELASTIC =           0.0000     CSUB                             
        CSUB-ELASTIC =           0.0000          CSUB-ELASTIC =           0.0000     CSUB                             
      CSUB-INELASTIC =           0.0000        CSUB-INELASTIC =           0.0000     CSUB                             
      CSUB-WATERCOMP =           0.0000        CSUB-WATERCOMP =           0.0000     CSUB                             
                 CHD =           2.2517                   CHD =       1.2144E-03     CHD_0                            

           TOTAL OUT =           2.2517             TOTAL OUT =       1.2144E-03

            IN - OUT =       1.1920E-06              IN - OUT =       1.8161E-09

 PERCENT DISCREPANCY =           0.00     PERCENT DISCREPANCY =           0.00




         TIME SUMMARY AT END OF TIME STEP   98 IN STRESS PERIOD    1
                    SECONDS     MINUTES      HOURS       DAYS        YEARS
                    -----------------------------------------------------------
   TIME STEP LENGTH 3.76037E+06  62673.      1044.5      43.523     0.11916    
 STRESS PERIOD TIME 7.83058E+07 1.30510E+06  21752.      906.32      2.4814    
         TOTAL TIME 7.83058E+07 1.30510E+06  21752.      906.32      2.4814    


end timestep


start timestep kper="1" kstp="99" mode="normal"



  VOLUME BUDGET FOR ENTIRE MODEL AT END OF TIME STEP   99, STRESS PERIOD   1
  ---------------------------------------------------------------------------------------------------

     CUMULATIVE VOLUME      L**3       RATES FOR THIS TIME STEP      L**3/T          PACKAGE NAME    
     ------------------                 ------------------------                     ----------------

           IN:                                      IN:
           ---                                      ---
              STO-SS =           0.0000                STO-SS =           0.0000     STORAGE                          
      CSUB-CGELASTIC =           0.0000        CSUB-CGELASTIC =           0.0000     CSUB                             
        CSUB-ELASTIC =           0.1008          CSUB-ELASTIC =           0.0000     CSUB                             
      CSUB-INELASTIC =           2.2050        CSUB-INELASTIC =       1.1846E-03     CSUB                             
      CSUB-WATERCOMP =           0.0000        CSUB-WATERCOMP =           0.0000     CSUB                             
                 CHD =           0.0000                   CHD =           0.0000     CHD_0                            

            TOTAL IN =           2.3058              TOTAL IN =       1.1846E-03

          OUT:                                     OUT:
          ----                                     ----
              STO-SS =           0.0000                STO-SS =           0.0000     STORAGE                          
      CSUB-CGELASTIC =           0.0000        CSUB-CGELASTIC =           0.0000     CSUB                             
        CSUB-ELASTIC =           0.0000          CSUB-ELASTIC =           0.0000     CSUB                             
      CSUB-INELASTIC =           0.0000        CSUB-INELASTIC =           0.0000     CSUB                             
      CSUB-WATERCOMP =           0.0000        CSUB-WATERCOMP =           0.0000     CSUB                             
                 CHD =           2.3058                   CHD =       1.1846E-03     CHD_0                            

           TOTAL OUT =           2.3058             TOTAL OUT =       1.1846E-03

            IN - OUT =       1.2767E-06              IN - OUT =       1.8529E-09

 PERCENT DISCREPANCY =           0.00     PERCENT DISCREPANCY =           0.00




         TIME SUMMARY AT END OF TIME STEP   99 IN STRESS PERIOD    1
                    SECONDS     MINUTES      HOURS       DAYS        YEARS
                    -----------------------------------------------------------
   TIME STEP LENGTH 3.94839E+06  65807.      1096.8      45.699     0.12512    
 STRESS PERIOD TIME 8.22542E+07 1.37090E+06  22848.      952.02      2.6065    
         TOTAL TIME 8.22542E+07 1.37090E+06  22848.      952.02      2.6065    


end timestep


start timestep kper="1" kstp="100" mode="normal"



  VOLUME BUDGET FOR ENTIRE MODEL AT END OF TIME STEP  100, STRESS PERIOD   1
  ---------------------------------------------------------------------------------------------------

     CUMULATIVE VOLUME      L**3       RATES FOR THIS TIME STEP      L**3/T          PACKAGE NAME    
     ------------------                 ------------------------                     ----------------

           IN:                                      IN:
           ---                                      ---
              STO-SS =           0.0000                STO-SS =           0.0000     STORAGE                          
      CSUB-CGELASTIC =           0.0000        CSUB-CGELASTIC =           0.0000     CSUB                             
        CSUB-ELASTIC =           0.1008          CSUB-ELASTIC =           0.0000     CSUB                             
      CSUB-INELASTIC =           2.2604        CSUB-INELASTIC =       1.1555E-03     CSUB                             
      CSUB-WATERCOMP =           0.0000        CSUB-WATERCOMP =           0.0000     CSUB                             
                 CHD =           0.0000                   CHD =           0.0000     CHD_0                            

            TOTAL IN =           2.3612              TOTAL IN =       1.1555E-03

          OUT:                                     OUT:
          ----                                     ----
              STO-SS =           0.0000                STO-SS =           0.0000     STORAGE                          
      CSUB-CGELASTIC =           0.0000        CSUB-CGELASTIC =           0.0000     CSUB                             
        CSUB-ELASTIC =           0.0000          CSUB-ELASTIC =           0.0000     CSUB                             
      CSUB-INELASTIC =           0.0000        CSUB-INELASTIC =           0.0000     CSUB                             
      CSUB-WATERCOMP =           0.0000        CSUB-WATERCOMP =           0.0000     CSUB                             
                 CHD =           2.3612                   CHD =       1.1555E-03     CHD_0                            

           TOTAL OUT =           2.3612             TOTAL OUT =       1.1555E-03

            IN - OUT =       1.3674E-06              IN - OUT =       1.8902E-09

 PERCENT DISCREPANCY =           0.00     PERCENT DISCREPANCY =           0.00




         TIME SUMMARY AT END OF TIME STEP  100 IN STRESS PERIOD    1
                    SECONDS     MINUTES      HOURS       DAYS        YEARS
                    -----------------------------------------------------------
   TIME STEP LENGTH 4.14581E+06  69097.      1151.6      47.984     0.13137    
 STRESS PERIOD TIME 8.64000E+07 1.44000E+06  24000.      1000.0      2.7379    
         TOTAL TIME 8.64000E+07 1.44000E+06  24000.      1000.0      2.7379    


end timestep

 
 LARGEST 1 OF 1 INTERBED STRAIN VALUES SHOWN

 CSUB PACKAGE INTERBED STRAIN SUMMARY
 ----------------------------------------------------------------------------------------------------------------------
  INTERBED   INTERBED                         INITIAL       FINAL        TOTAL                    PERCENT              
   NUMBER      TYPE    CELLID                THICKNESS    THICKNESS    COMPACTION  FINAL STRAIN  COMPACTION     FLAG   
 ----------------------------------------------------------------------------------------------------------------------
     1        delay    (1,1,2)               100.00       100.00       2.3612       2.36124E-02  2.3612        *>=1%   
 ----------------------------------------------------------------------------------------------------------------------



 PERCENT COMPACTION IS GREATER THAN OR EQUAL TO 1 PERCENT IN 1 OF 1 INTERBED(S).
 USE THE STRAIN_CSV_INTERBED OPTION TO OUTPUT A CSV FILE WITH PERCENT COMPACTION 
 VALUES FOR ALL INTERBEDS.

 COARSE-GRAINED STORAGE PERCENT COMPACTION WAS LESS THAN 1 PERCENT IN ALL CELLS
